REMARK minimizedAffinity -6.17304277
REMARK minimizedRMSD -1
REMARK  4 active torsions:
REMARK  status: ('A' for Active; 'I' for Inactive)
REMARK    1  A    between atoms: O_3  and  C_13 
REMARK    2  A    between atoms: O_4  and  C_16 
REMARK    3  A    between atoms: O_5  and  C_17 
REMARK    4  A    between atoms: C_9  and  C_17 
ROOT
ATOM      1  O   UNL d   1      23.012  92.456  59.906  0.00  0.00    -0.371 OA
ATOM      2  O   UNL d   1      20.104  92.613  62.094  0.00  0.00    -0.370 OA
ATOM      3  O   UNL d   1      18.552  97.165  60.812  0.00  0.00    -0.290 OA
ATOM      4  C   UNL d   1      22.455  94.166  61.649  0.00  0.00     0.010 C 
ATOM      5  C   UNL d   1      22.007  93.026  60.757  0.00  0.00     0.119 A 
ATOM      6  C   UNL d   1      21.116  94.925  62.100  0.00  0.00     0.054 C 
ATOM      7  C   UNL d   1      21.353  92.053  61.676  0.00  0.00     0.188 C 
ATOM      8  C   UNL d   1      23.058  93.348  62.857  0.00  0.00     0.048 C 
ATOM      9  C   UNL d   1      21.867  93.024  59.255  0.00  0.00     0.210 A 
ATOM     10  C   UNL d   1      22.390  91.954  62.806  0.00  0.00     0.151 C 
ATOM     11  C   UNL d   1      20.164  93.877  62.783  0.00  0.00     0.160 C 
ATOM     12  C   UNL d   1      23.541  95.055  61.039  0.00  0.00     0.020 C 
ATOM     13  C   UNL d   1      20.342  95.549  60.899  0.00  0.00     0.206 C 
ATOM     14  C   UNL d   1      18.738  94.332  62.929  0.00  0.00     0.016 C 
ATOM     15  C   UNL d   1      18.991  96.127  61.307  0.00  0.00     0.184 C 
ATOM     16  C   UNL d   1      18.173  95.367  62.293  0.00  0.00    -0.015 C 
ATOM     17  C   UNL d   1      16.760  95.803  62.517  0.00  0.00     0.052 C 
ENDROOT
BRANCH   6  18
ATOM     18  C   UNL d   1      21.446  96.058  63.113  0.00  0.00     0.180 C 
BRANCH  18  19
ATOM     19  O   UNL d   1      21.536  95.471  64.387  0.00  0.00    -0.400 OA
ATOM     20  H   UNL d   1      21.745  96.179  65.020  0.00  0.00     0.209 HD
ENDBRANCH  18  19
ENDBRANCH   6  18
BRANCH  13  21
ATOM     21  O   UNL d   1      21.078  96.599  60.290  0.00  0.00    -0.387 OA
ATOM     22  H   UNL d   1      21.124  97.348  60.907  0.00  0.00     0.210 HD
ENDBRANCH  13  21
BRANCH  10  23
ATOM     23  O   UNL d   1      21.817  91.567  64.037  0.00  0.00    -0.393 OA
ATOM     24  H   UNL d   1      22.520  91.598  64.709  0.00  0.00     0.210 HD
ENDBRANCH  10  23
TORSDOF 4
