REMARK minimizedAffinity -6.18226004
REMARK minimizedRMSD -1
REMARK  4 active torsions:
REMARK  status: ('A' for Active; 'I' for Inactive)
REMARK    1  A    between atoms: O_3  and  C_13 
REMARK    2  A    between atoms: O_4  and  C_16 
REMARK    3  A    between atoms: O_5  and  C_17 
REMARK    4  A    between atoms: C_9  and  C_17 
ROOT
ATOM      1  O   UNL d   1      47.291  74.741  27.602  0.00  0.00    -0.371 OA
ATOM      2  O   UNL d   1      44.452  76.972  28.084  0.00  0.00    -0.370 OA
ATOM      3  O   UNL d   1      42.792  76.960  23.392  0.00  0.00    -0.290 OA
ATOM      4  C   UNL d   1      46.764  76.883  26.416  0.00  0.00     0.010 C 
ATOM      5  C   UNL d   1      46.305  75.738  27.296  0.00  0.00     0.119 A 
ATOM      6  C   UNL d   1      45.429  77.552  25.831  0.00  0.00     0.054 C 
ATOM      7  C   UNL d   1      45.696  76.389  28.488  0.00  0.00     0.188 C 
ATOM      8  C   UNL d   1      47.417  77.820  27.506  0.00  0.00     0.048 C 
ATOM      9  C   UNL d   1      46.117  74.291  26.911  0.00  0.00     0.210 A 
ATOM     10  C   UNL d   1      46.769  77.426  28.853  0.00  0.00     0.151 C 
ATOM     11  C   UNL d   1      44.515  77.964  27.041  0.00  0.00     0.160 C 
ATOM     12  C   UNL d   1      47.817  76.497  25.375  0.00  0.00     0.020 C 
ATOM     13  C   UNL d   1      44.608  76.575  24.934  0.00  0.00     0.206 C 
ATOM     14  C   UNL d   1      43.088  78.262  26.673  0.00  0.00     0.016 C 
ATOM     15  C   UNL d   1      43.262  77.156  24.513  0.00  0.00     0.184 C 
ATOM     16  C   UNL d   1      42.487  77.932  25.521  0.00  0.00    -0.015 C 
ATOM     17  C   UNL d   1      41.076  78.299  25.191  0.00  0.00     0.052 C 
ENDROOT
BRANCH   6  18
ATOM     18  C   UNL d   1      45.774  78.816  24.992  0.00  0.00     0.180 C 
BRANCH  18  19
ATOM     19  O   UNL d   1      46.143  79.830  25.893  0.00  0.00    -0.400 OA
ATOM     20  H   UNL d   1      46.362  80.620  25.368  0.00  0.00     0.209 HD
ENDBRANCH  18  19
ENDBRANCH   6  18
BRANCH  13  21
ATOM     21  O   UNL d   1      45.308  76.242  23.746  0.00  0.00    -0.387 OA
ATOM     22  H   UNL d   1      45.363  77.031  23.182  0.00  0.00     0.210 HD
ENDBRANCH  13  21
BRANCH  10  23
ATOM     23  O   UNL d   1      46.242  78.529  29.560  0.00  0.00    -0.393 OA
ATOM     24  H   UNL d   1      46.965  79.167  29.688  0.00  0.00     0.210 HD
ENDBRANCH  10  23
TORSDOF 4
