REMARK minimizedAffinity -8.48219585
REMARK minimizedRMSD -1
REMARK  4 active torsions:
REMARK  status: ('A' for Active; 'I' for Inactive)
REMARK    1  A    between atoms: O_3  and  C_13 
REMARK    2  A    between atoms: O_4  and  C_16 
REMARK    3  A    between atoms: O_5  and  C_17 
REMARK    4  A    between atoms: C_9  and  C_17 
ROOT
ATOM      1  O   UNL d   1      48.697  90.288  84.178  0.00  0.00    -0.371 OA
ATOM      2  O   UNL d   1      51.000  89.908  81.382  0.00  0.00    -0.370 OA
ATOM      3  O   UNL d   1      52.251  85.159  82.191  0.00  0.00    -0.290 OA
ATOM      4  C   UNL d   1      51.098  89.576  84.213  0.00  0.00     0.010 C 
ATOM      5  C   UNL d   1      49.824  89.812  83.428  0.00  0.00     0.119 A 
ATOM      6  C   UNL d   1      52.005  88.616  83.303  0.00  0.00     0.054 C 
ATOM      7  C   UNL d   1      50.227  90.693  82.297  0.00  0.00     0.188 C 
ATOM      8  C   UNL d   1      51.686  91.040  84.227  0.00  0.00     0.048 C 
ATOM      9  C   UNL d   1      48.532  89.035  83.500  0.00  0.00     0.210 A 
ATOM     10  C   UNL d   1      51.046  91.771  83.024  0.00  0.00     0.151 C 
ATOM     11  C   UNL d   1      52.201  89.307  81.905  0.00  0.00     0.160 C 
ATOM     12  C   UNL d   1      50.874  89.100  85.651  0.00  0.00     0.020 C 
ATOM     13  C   UNL d   1      51.348  87.225  83.051  0.00  0.00     0.206 C 
ATOM     14  C   UNL d   1      52.707  88.394  80.823  0.00  0.00     0.016 C 
ATOM     15  C   UNL d   1      52.132  86.377  82.055  0.00  0.00     0.184 C 
ATOM     16  C   UNL d   1      52.715  87.055  80.864  0.00  0.00    -0.015 C 
ATOM     17  C   UNL d   1      53.278  86.198  79.775  0.00  0.00     0.052 C 
ENDROOT
BRANCH   6  18
ATOM     18  C   UNL d   1      53.395  88.390  83.966  0.00  0.00     0.180 C 
BRANCH  18  19
ATOM     19  O   UNL d   1      54.330  89.165  83.257  0.00  0.00    -0.400 OA
ATOM     20  H   UNL d   1      55.198  89.025  83.672  0.00  0.00     0.209 HD
ENDBRANCH  18  19
ENDBRANCH   6  18
BRANCH  13  21
ATOM     21  O   UNL d   1      51.242  86.471  84.249  0.00  0.00    -0.387 OA
ATOM     22  H   UNL d   1      52.134  86.220  84.541  0.00  0.00     0.210 HD
ENDBRANCH  13  21
BRANCH  10  23
ATOM     23  O   UNL d   1      51.994  92.393  82.183  0.00  0.00    -0.393 OA
ATOM     24  H   UNL d   1      52.515  93.005  82.732  0.00  0.00     0.210 HD
ENDBRANCH  10  23
TORSDOF 4
