REMARK minimizedAffinity -6.40692043
REMARK minimizedRMSD -1
REMARK  4 active torsions:
REMARK  status: ('A' for Active; 'I' for Inactive)
REMARK    1  A    between atoms: O_3  and  C_13 
REMARK    2  A    between atoms: O_4  and  C_16 
REMARK    3  A    between atoms: O_5  and  C_17 
REMARK    4  A    between atoms: C_9  and  C_17 
ROOT
ATOM      1  O   UNL d   1      71.750  86.207  66.171  0.00  0.00    -0.371 OA
ATOM      2  O   UNL d   1      68.218  86.935  65.658  0.00  0.00    -0.370 OA
ATOM      3  O   UNL d   1      68.608  91.881  65.261  0.00  0.00    -0.290 OA
ATOM      4  C   UNL d   1      70.257  87.728  67.487  0.00  0.00     0.010 C 
ATOM      5  C   UNL d   1      70.511  86.929  66.225  0.00  0.00     0.119 A 
ATOM      6  C   UNL d   1      69.115  88.791  67.115  0.00  0.00     0.054 C 
ATOM      7  C   UNL d   1      69.297  86.083  66.056  0.00  0.00     0.188 C 
ATOM      8  C   UNL d   1      69.673  86.594  68.417  0.00  0.00     0.048 C 
ATOM      9  C   UNL d   1      71.537  87.193  65.151  0.00  0.00     0.210 A 
ATOM     10  C   UNL d   1      69.130  85.500  67.468  0.00  0.00     0.151 C 
ATOM     11  C   UNL d   1      67.872  88.001  66.563  0.00  0.00     0.160 C 
ATOM     12  C   UNL d   1      71.518  88.316  68.126  0.00  0.00     0.020 C 
ATOM     13  C   UNL d   1      69.562  89.795  66.009  0.00  0.00     0.206 C 
ATOM     14  C   UNL d   1      66.868  88.850  65.833  0.00  0.00     0.016 C 
ATOM     15  C   UNL d   1      68.425  90.697  65.541  0.00  0.00     0.184 C 
ATOM     16  C   UNL d   1      67.074  90.092  65.374  0.00  0.00    -0.015 C 
ATOM     17  C   UNL d   1      66.019  90.907  64.696  0.00  0.00     0.052 C 
ENDROOT
BRANCH   6  18
ATOM     18  C   UNL d   1      68.693  89.602  68.374  0.00  0.00     0.180 C 
BRANCH  18  19
ATOM     19  O   UNL d   1      69.819  90.324  68.806  0.00  0.00    -0.400 OA
ATOM     20  H   UNL d   1      69.555  90.833  69.591  0.00  0.00     0.209 HD
ENDBRANCH  18  19
ENDBRANCH   6  18
BRANCH  13  21
ATOM     21  O   UNL d   1      70.606  90.641  66.462  0.00  0.00    -0.387 OA
ATOM     22  H   UNL d   1      70.253  91.239  67.142  0.00  0.00     0.210 HD
ENDBRANCH  13  21
BRANCH  10  23
ATOM     23  O   UNL d   1      67.796  85.133  67.750  0.00  0.00    -0.393 OA
ATOM     24  H   UNL d   1      67.763  84.844  68.679  0.00  0.00     0.210 HD
ENDBRANCH  10  23
TORSDOF 4
