MODEL 1
REMARK minimizedAffinity -8.48219585
REMARK minimizedRMSD -1
REMARK  4 active torsions:
REMARK  status: ('A' for Active; 'I' for Inactive)
REMARK    1  A    between atoms: O_3  and  C_13 
REMARK    2  A    between atoms: O_4  and  C_16 
REMARK    3  A    between atoms: O_5  and  C_17 
REMARK    4  A    between atoms: C_9  and  C_17 
ROOT
ATOM      1  O   UNL d   1      48.697  90.288  84.178  0.00  0.00    -0.371 OA
ATOM      2  O   UNL d   1      51.000  89.908  81.382  0.00  0.00    -0.370 OA
ATOM      3  O   UNL d   1      52.251  85.159  82.191  0.00  0.00    -0.290 OA
ATOM      4  C   UNL d   1      51.098  89.576  84.213  0.00  0.00     0.010 C 
ATOM      5  C   UNL d   1      49.824  89.812  83.428  0.00  0.00     0.119 A 
ATOM      6  C   UNL d   1      52.005  88.616  83.303  0.00  0.00     0.054 C 
ATOM      7  C   UNL d   1      50.227  90.693  82.297  0.00  0.00     0.188 C 
ATOM      8  C   UNL d   1      51.686  91.040  84.227  0.00  0.00     0.048 C 
ATOM      9  C   UNL d   1      48.532  89.035  83.500  0.00  0.00     0.210 A 
ATOM     10  C   UNL d   1      51.046  91.771  83.024  0.00  0.00     0.151 C 
ATOM     11  C   UNL d   1      52.201  89.307  81.905  0.00  0.00     0.160 C 
ATOM     12  C   UNL d   1      50.874  89.100  85.651  0.00  0.00     0.020 C 
ATOM     13  C   UNL d   1      51.348  87.225  83.051  0.00  0.00     0.206 C 
ATOM     14  C   UNL d   1      52.707  88.394  80.823  0.00  0.00     0.016 C 
ATOM     15  C   UNL d   1      52.132  86.377  82.055  0.00  0.00     0.184 C 
ATOM     16  C   UNL d   1      52.715  87.055  80.864  0.00  0.00    -0.015 C 
ATOM     17  C   UNL d   1      53.278  86.198  79.775  0.00  0.00     0.052 C 
ENDROOT
BRANCH   6  18
ATOM     18  C   UNL d   1      53.395  88.390  83.966  0.00  0.00     0.180 C 
BRANCH  18  19
ATOM     19  O   UNL d   1      54.330  89.165  83.257  0.00  0.00    -0.400 OA
ATOM     20  H   UNL d   1      55.198  89.025  83.672  0.00  0.00     0.209 HD
ENDBRANCH  18  19
ENDBRANCH   6  18
BRANCH  13  21
ATOM     21  O   UNL d   1      51.242  86.471  84.249  0.00  0.00    -0.387 OA
ATOM     22  H   UNL d   1      52.134  86.220  84.541  0.00  0.00     0.210 HD
ENDBRANCH  13  21
BRANCH  10  23
ATOM     23  O   UNL d   1      51.994  92.393  82.183  0.00  0.00    -0.393 OA
ATOM     24  H   UNL d   1      52.515  93.005  82.732  0.00  0.00     0.210 HD
ENDBRANCH  10  23
TORSDOF 4
ENDMDL
MODEL 2
REMARK minimizedAffinity -8.02511215
REMARK minimizedRMSD -1
REMARK  4 active torsions:
REMARK  status: ('A' for Active; 'I' for Inactive)
REMARK    1  A    between atoms: O_3  and  C_13 
REMARK    2  A    between atoms: O_4  and  C_16 
REMARK    3  A    between atoms: O_5  and  C_17 
REMARK    4  A    between atoms: C_9  and  C_17 
ROOT
ATOM      1  O   UNL d   1      52.631  89.942  81.586  0.00  0.00    -0.371 OA
ATOM      2  O   UNL d   1      53.226  87.353  84.078  0.00  0.00    -0.370 OA
ATOM      3  O   UNL d   1      49.510  84.309  82.777  0.00  0.00    -0.290 OA
ATOM      4  C   UNL d   1      51.052  89.028  83.302  0.00  0.00     0.010 C 
ATOM      5  C   UNL d   1      52.341  88.890  82.519  0.00  0.00     0.119 A 
ATOM      6  C   UNL d   1      50.720  87.564  83.867  0.00  0.00     0.054 C 
ATOM      7  C   UNL d   1      53.395  88.672  83.548  0.00  0.00     0.188 C 
ATOM      8  C   UNL d   1      51.541  89.971  84.470  0.00  0.00     0.048 C 
ATOM      9  C   UNL d   1      52.505  88.620  81.043  0.00  0.00     0.210 A 
ATOM     10  C   UNL d   1      53.074  89.785  84.557  0.00  0.00     0.151 C 
ATOM     11  C   UNL d   1      51.958  87.067  84.699  0.00  0.00     0.160 C 
ATOM     12  C   UNL d   1      49.917  89.710  82.535  0.00  0.00     0.020 C 
ATOM     13  C   UNL d   1      50.468  86.523  82.734  0.00  0.00     0.206 C 
ATOM     14  C   UNL d   1      51.965  85.591  84.985  0.00  0.00     0.016 C 
ATOM     15  C   UNL d   1      50.315  85.102  83.265  0.00  0.00     0.184 C 
ATOM     16  C   UNL d   1      51.214  84.667  84.370  0.00  0.00    -0.015 C 
ATOM     17  C   UNL d   1      51.229  83.216  84.732  0.00  0.00     0.052 C 
ENDROOT
BRANCH   6  18
ATOM     18  C   UNL d   1      49.465  87.605  84.785  0.00  0.00     0.180 C 
BRANCH  18  19
ATOM     19  O   UNL d   1      49.917  87.714  86.112  0.00  0.00    -0.400 OA
ATOM     20  H   UNL d   1      49.132  87.741  86.685  0.00  0.00     0.209 HD
ENDBRANCH  18  19
ENDBRANCH   6  18
BRANCH  13  21
ATOM     21  O   UNL d   1      49.291  86.823  82.000  0.00  0.00    -0.387 OA
ATOM     22  H   UNL d   1      48.519  86.683  82.574  0.00  0.00     0.210 HD
ENDBRANCH  13  21
BRANCH  10  23
ATOM     23  O   UNL d   1      53.524  89.484  85.861  0.00  0.00    -0.393 OA
ATOM     24  H   UNL d   1      53.220  90.199  86.447  0.00  0.00     0.210 HD
ENDBRANCH  10  23
TORSDOF 4
ENDMDL
MODEL 3
REMARK minimizedAffinity -7.89358425
REMARK minimizedRMSD -1
REMARK  4 active torsions:
REMARK  status: ('A' for Active; 'I' for Inactive)
REMARK    1  A    between atoms: O_3  and  C_13 
REMARK    2  A    between atoms: O_4  and  C_16 
REMARK    3  A    between atoms: O_5  and  C_17 
REMARK    4  A    between atoms: C_9  and  C_17 
ROOT
ATOM      1  O   UNL d   1      49.055  86.913  82.986  0.00  0.00    -0.371 OA
ATOM      2  O   UNL d   1      51.303  88.263  85.515  0.00  0.00    -0.370 OA
ATOM      3  O   UNL d   1      52.113  92.691  83.391  0.00  0.00    -0.290 OA
ATOM      4  C   UNL d   1      51.380  87.801  82.701  0.00  0.00     0.010 C 
ATOM      5  C   UNL d   1      50.131  87.679  83.550  0.00  0.00     0.119 A 
ATOM      6  C   UNL d   1      52.192  89.053  83.289  0.00  0.00     0.054 C 
ATOM      7  C   UNL d   1      50.610  87.188  84.871  0.00  0.00     0.188 C 
ATOM      8  C   UNL d   1      52.101  86.449  83.082  0.00  0.00     0.048 C 
ATOM      9  C   UNL d   1      48.773  88.286  83.294  0.00  0.00     0.210 A 
ATOM     10  C   UNL d   1      51.527  86.029  84.455  0.00  0.00     0.151 C 
ATOM     11  C   UNL d   1      52.445  88.799  84.819  0.00  0.00     0.160 C 
ATOM     12  C   UNL d   1      51.119  87.835  81.194  0.00  0.00     0.020 C 
ATOM     13  C   UNL d   1      51.408  90.394  83.159  0.00  0.00     0.206 C 
ATOM     14  C   UNL d   1      52.861  90.020  85.593  0.00  0.00     0.016 C 
ATOM     15  C   UNL d   1      52.107  91.554  83.862  0.00  0.00     0.184 C 
ATOM     16  C   UNL d   1      52.745  91.290  85.181  0.00  0.00    -0.015 C 
ATOM     17  C   UNL d   1      53.222  92.463  85.977  0.00  0.00     0.052 C 
ENDROOT
BRANCH   6  18
ATOM     18  C   UNL d   1      53.557  89.209  82.559  0.00  0.00     0.180 C 
BRANCH  18  19
ATOM     19  O   UNL d   1      54.552  88.712  83.418  0.00  0.00    -0.400 OA
ATOM     20  H   UNL d   1      55.405  88.807  82.961  0.00  0.00     0.209 HD
ENDBRANCH  18  19
ENDBRANCH   6  18
BRANCH  13  21
ATOM     21  O   UNL d   1      51.237  90.772  81.802  0.00  0.00    -0.387 OA
ATOM     22  H   UNL d   1      52.103  91.011  81.431  0.00  0.00     0.210 HD
ENDBRANCH  13  21
BRANCH  10  23
ATOM     23  O   UNL d   1      52.526  85.753  85.414  0.00  0.00    -0.393 OA
ATOM     24  H   UNL d   1      53.102  85.062  85.045  0.00  0.00     0.210 HD
ENDBRANCH  10  23
TORSDOF 4
ENDMDL
MODEL 4
REMARK minimizedAffinity -7.78367043
REMARK minimizedRMSD -1
REMARK  4 active torsions:
REMARK  status: ('A' for Active; 'I' for Inactive)
REMARK    1  A    between atoms: O_3  and  C_13 
REMARK    2  A    between atoms: O_4  and  C_16 
REMARK    3  A    between atoms: O_5  and  C_17 
REMARK    4  A    between atoms: C_9  and  C_17 
ROOT
ATOM      1  O   UNL d   1      52.899  88.744  81.192  0.00  0.00    -0.371 OA
ATOM      2  O   UNL d   1      52.384  87.716  84.648  0.00  0.00    -0.370 OA
ATOM      3  O   UNL d   1      47.602  86.397  84.246  0.00  0.00    -0.290 OA
ATOM      4  C   UNL d   1      51.193  89.565  82.832  0.00  0.00     0.010 C 
ATOM      5  C   UNL d   1      52.215  88.520  82.434  0.00  0.00     0.119 A 
ATOM      6  C   UNL d   1      50.256  88.868  83.932  0.00  0.00     0.054 C 
ATOM      7  C   UNL d   1      53.112  88.389  83.615  0.00  0.00     0.188 C 
ATOM      8  C   UNL d   1      52.141  90.630  83.510  0.00  0.00     0.048 C 
ATOM      9  C   UNL d   1      52.137  87.533  81.295  0.00  0.00     0.210 A 
ATOM     10  C   UNL d   1      53.413  89.861  83.937  0.00  0.00     0.151 C 
ATOM     11  C   UNL d   1      51.172  88.350  85.100  0.00  0.00     0.160 C 
ATOM     12  C   UNL d   1      50.457  90.209  81.655  0.00  0.00     0.020 C 
ATOM     13  C   UNL d   1      49.475  87.642  83.370  0.00  0.00     0.206 C 
ATOM     14  C   UNL d   1      50.511  87.362  86.021  0.00  0.00     0.016 C 
ATOM     15  C   UNL d   1      48.713  86.884  84.452  0.00  0.00     0.184 C 
ATOM     16  C   UNL d   1      49.377  86.692  85.772  0.00  0.00    -0.015 C 
ATOM     17  C   UNL d   1      48.740  85.756  86.749  0.00  0.00     0.052 C 
ENDROOT
BRANCH   6  18
ATOM     18  C   UNL d   1      49.227  89.889  84.498  0.00  0.00     0.180 C 
BRANCH  18  19
ATOM     19  O   UNL d   1      49.774  90.429  85.675  0.00  0.00    -0.400 OA
ATOM     20  H   UNL d   1      49.132  91.069  86.027  0.00  0.00     0.209 HD
ENDBRANCH  18  19
ENDBRANCH   6  18
BRANCH  13  21
ATOM     21  O   UNL d   1      48.527  88.030  82.388  0.00  0.00    -0.387 OA
ATOM     22  H   UNL d   1      47.818  88.537  82.819  0.00  0.00     0.210 HD
ENDBRANCH  13  21
BRANCH  10  23
ATOM     23  O   UNL d   1      53.755  90.063  85.292  0.00  0.00    -0.393 OA
ATOM     24  H   UNL d   1      53.858  91.021  85.427  0.00  0.00     0.210 HD
ENDBRANCH  10  23
TORSDOF 4
ENDMDL
MODEL 5
REMARK minimizedAffinity -7.71287823
REMARK minimizedRMSD -1
REMARK  4 active torsions:
REMARK  status: ('A' for Active; 'I' for Inactive)
REMARK    1  A    between atoms: O_3  and  C_13 
REMARK    2  A    between atoms: O_4  and  C_16 
REMARK    3  A    between atoms: O_5  and  C_17 
REMARK    4  A    between atoms: C_9  and  C_17 
ROOT
ATOM      1  O   UNL d   1      49.925  90.229  85.527  0.00  0.00    -0.371 OA
ATOM      2  O   UNL d   1      48.547  86.884  85.099  0.00  0.00    -0.370 OA
ATOM      3  O   UNL d   1      52.830  84.362  85.348  0.00  0.00    -0.290 OA
ATOM      4  C   UNL d   1      50.507  88.503  83.807  0.00  0.00     0.010 C 
ATOM      5  C   UNL d   1      49.852  88.852  85.128  0.00  0.00     0.119 A 
ATOM      6  C   UNL d   1      50.727  86.915  83.829  0.00  0.00     0.054 C 
ATOM      7  C   UNL d   1      48.469  88.312  85.026  0.00  0.00     0.188 C 
ATOM      8  C   UNL d   1      49.339  88.884  82.815  0.00  0.00     0.048 C 
ATOM      9  C   UNL d   1      50.523  89.273  86.413  0.00  0.00     0.210 A 
ATOM     10  C   UNL d   1      48.036  88.833  83.647  0.00  0.00     0.151 C 
ATOM     11  C   UNL d   1      49.336  86.230  84.087  0.00  0.00     0.160 C 
ATOM     12  C   UNL d   1      51.749  89.335  83.479  0.00  0.00     0.020 C 
ATOM     13  C   UNL d   1      51.693  86.456  84.963  0.00  0.00     0.206 C 
ATOM     14  C   UNL d   1      49.418  84.787  84.500  0.00  0.00     0.016 C 
ATOM     15  C   UNL d   1      51.774  84.938  85.087  0.00  0.00     0.184 C 
ATOM     16  C   UNL d   1      50.516  84.155  84.938  0.00  0.00    -0.015 C 
ATOM     17  C   UNL d   1      50.548  82.702  85.289  0.00  0.00     0.052 C 
ENDROOT
BRANCH   6  18
ATOM     18  C   UNL d   1      51.298  86.425  82.468  0.00  0.00     0.180 C 
BRANCH  18  19
ATOM     19  O   UNL d   1      50.227  85.895  81.728  0.00  0.00    -0.400 OA
ATOM     20  H   UNL d   1      50.584  85.591  80.876  0.00  0.00     0.209 HD
ENDBRANCH  18  19
ENDBRANCH   6  18
BRANCH  13  21
ATOM     21  O   UNL d   1      53.014  86.927  84.748  0.00  0.00    -0.387 OA
ATOM     22  H   UNL d   1      53.387  86.474  83.974  0.00  0.00     0.210 HD
ENDBRANCH  13  21
BRANCH  10  23
ATOM     23  O   UNL d   1      47.030  88.037  83.056  0.00  0.00    -0.393 OA
ATOM     24  H   UNL d   1      46.867  88.389  82.163  0.00  0.00     0.210 HD
ENDBRANCH  10  23
TORSDOF 4
ENDMDL
MODEL 6
REMARK minimizedAffinity -7.67313194
REMARK minimizedRMSD -1
REMARK  4 active torsions:
REMARK  status: ('A' for Active; 'I' for Inactive)
REMARK    1  A    between atoms: O_3  and  C_13 
REMARK    2  A    between atoms: O_4  and  C_16 
REMARK    3  A    between atoms: O_5  and  C_17 
REMARK    4  A    between atoms: C_9  and  C_17 
ROOT
ATOM      1  O   UNL d   1      52.554  90.747  85.184  0.00  0.00    -0.371 OA
ATOM      2  O   UNL d   1      50.110  88.091  85.683  0.00  0.00    -0.370 OA
ATOM      3  O   UNL d   1      52.269  84.650  82.808  0.00  0.00    -0.290 OA
ATOM      4  C   UNL d   1      51.234  89.489  83.466  0.00  0.00     0.010 C 
ATOM      5  C   UNL d   1      51.746  89.597  84.887  0.00  0.00     0.119 A 
ATOM      6  C   UNL d   1      50.814  87.955  83.263  0.00  0.00     0.054 C 
ATOM      7  C   UNL d   1      50.536  89.457  85.743  0.00  0.00     0.188 C 
ATOM      8  C   UNL d   1      49.951  90.403  83.567  0.00  0.00     0.048 C 
ATOM      9  C   UNL d   1      53.169  89.464  85.373  0.00  0.00     0.210 A 
ATOM     10  C   UNL d   1      49.565  90.434  85.064  0.00  0.00     0.151 C 
ATOM     11  C   UNL d   1      49.772  87.580  84.379  0.00  0.00     0.160 C 
ATOM     12  C   UNL d   1      52.184  90.056  82.408  0.00  0.00     0.020 C 
ATOM     13  C   UNL d   1      52.020  86.976  83.399  0.00  0.00     0.206 C 
ATOM     14  C   UNL d   1      49.556  86.104  84.561  0.00  0.00     0.016 C 
ATOM     15  C   UNL d   1      51.594  85.512  83.370  0.00  0.00     0.184 C 
ATOM     16  C   UNL d   1      50.350  85.130  84.095  0.00  0.00    -0.015 C 
ATOM     17  C   UNL d   1      50.058  83.673  84.267  0.00  0.00     0.052 C 
ENDROOT
BRANCH   6  18
ATOM     18  C   UNL d   1      50.168  87.746  81.863  0.00  0.00     0.180 C 
BRANCH  18  19
ATOM     19  O   UNL d   1      48.773  87.816  82.029  0.00  0.00    -0.400 OA
ATOM     20  H   UNL d   1      48.370  87.687  81.154  0.00  0.00     0.209 HD
ENDBRANCH  18  19
ENDBRANCH   6  18
BRANCH  13  21
ATOM     21  O   UNL d   1      52.962  87.157  82.354  0.00  0.00    -0.387 OA
ATOM     22  H   UNL d   1      52.563  86.866  81.518  0.00  0.00     0.210 HD
ENDBRANCH  13  21
BRANCH  10  23
ATOM     23  O   UNL d   1      48.211  90.104  85.295  0.00  0.00    -0.393 OA
ATOM     24  H   UNL d   1      47.667  90.722  84.776  0.00  0.00     0.210 HD
ENDBRANCH  10  23
TORSDOF 4
ENDMDL
MODEL 7
REMARK minimizedAffinity -7.45820141
REMARK minimizedRMSD -1
REMARK  4 active torsions:
REMARK  status: ('A' for Active; 'I' for Inactive)
REMARK    1  A    between atoms: O_3  and  C_13 
REMARK    2  A    between atoms: O_4  and  C_16 
REMARK    3  A    between atoms: O_5  and  C_17 
REMARK    4  A    between atoms: C_9  and  C_17 
ROOT
ATOM      1  O   UNL d   1      42.936  75.218  26.805  0.00  0.00    -0.371 OA
ATOM      2  O   UNL d   1      46.212  75.725  28.317  0.00  0.00    -0.370 OA
ATOM      3  O   UNL d   1      46.875  80.449  26.898  0.00  0.00    -0.290 OA
ATOM      4  C   UNL d   1      45.069  75.949  25.713  0.00  0.00     0.010 C 
ATOM      5  C   UNL d   1      44.265  75.732  26.979  0.00  0.00     0.119 A 
ATOM      6  C   UNL d   1      46.257  76.950  26.110  0.00  0.00     0.054 C 
ATOM      7  C   UNL d   1      45.139  74.899  27.851  0.00  0.00     0.188 C 
ATOM      8  C   UNL d   1      45.629  74.489  25.492  0.00  0.00     0.048 C 
ATOM      9  C   UNL d   1      43.051  76.495  27.448  0.00  0.00     0.210 A 
ATOM     10  C   UNL d   1      45.589  73.801  26.876  0.00  0.00     0.151 C 
ATOM     11  C   UNL d   1      47.054  76.315  27.308  0.00  0.00     0.160 C 
ATOM     12  C   UNL d   1      44.236  76.367  24.499  0.00  0.00     0.020 C 
ATOM     13  C   UNL d   1      45.740  78.344  26.578  0.00  0.00     0.206 C 
ATOM     14  C   UNL d   1      47.955  77.273  28.035  0.00  0.00     0.016 C 
ATOM     15  C   UNL d   1      46.856  79.237  27.110  0.00  0.00     0.184 C 
ATOM     16  C   UNL d   1      47.913  78.610  27.953  0.00  0.00    -0.015 C 
ATOM     17  C   UNL d   1      48.869  79.513  28.665  0.00  0.00     0.052 C 
ENDROOT
BRANCH   6  18
ATOM     18  C   UNL d   1      47.219  77.162  24.906  0.00  0.00     0.180 C 
BRANCH  18  19
ATOM     19  O   UNL d   1      48.363  76.380  25.139  0.00  0.00    -0.400 OA
ATOM     20  H   UNL d   1      48.963  76.510  24.385  0.00  0.00     0.209 HD
ENDBRANCH  18  19
ENDBRANCH   6  18
BRANCH  13  21
ATOM     21  O   UNL d   1      45.109  79.050  25.522  0.00  0.00    -0.387 OA
ATOM     22  H   UNL d   1      45.781  79.298  24.865  0.00  0.00     0.210 HD
ENDBRANCH  13  21
BRANCH  10  23
ATOM     23  O   UNL d   1      46.822  73.219  27.243  0.00  0.00    -0.393 OA
ATOM     24  H   UNL d   1      47.069  72.591  26.542  0.00  0.00     0.210 HD
ENDBRANCH  10  23
TORSDOF 4
ENDMDL
MODEL 8
REMARK minimizedAffinity -7.44245863
REMARK minimizedRMSD -1
REMARK  4 active torsions:
REMARK  status: ('A' for Active; 'I' for Inactive)
REMARK    1  A    between atoms: O_3  and  C_13 
REMARK    2  A    between atoms: O_4  and  C_16 
REMARK    3  A    between atoms: O_5  and  C_17 
REMARK    4  A    between atoms: C_9  and  C_17 
ROOT
ATOM      1  O   UNL d   1      48.303  90.344  83.727  0.00  0.00    -0.371 OA
ATOM      2  O   UNL d   1      49.736  87.433  82.071  0.00  0.00    -0.370 OA
ATOM      3  O   UNL d   1      50.988  84.889  86.162  0.00  0.00    -0.290 OA
ATOM      4  C   UNL d   1      50.594  89.365  83.986  0.00  0.00     0.010 C 
ATOM      5  C   UNL d   1      49.163  89.215  83.511  0.00  0.00     0.119 A 
ATOM      6  C   UNL d   1      51.182  87.877  84.092  0.00  0.00     0.054 C 
ATOM      7  C   UNL d   1      49.273  88.788  82.089  0.00  0.00     0.188 C 
ATOM      8  C   UNL d   1      51.216  90.117  82.745  0.00  0.00     0.048 C 
ATOM      9  C   UNL d   1      47.913  89.112  84.351  0.00  0.00     0.210 A 
ATOM     10  C   UNL d   1      50.297  89.794  81.544  0.00  0.00     0.151 C 
ATOM     11  C   UNL d   1      51.011  87.181  82.693  0.00  0.00     0.160 C 
ATOM     12  C   UNL d   1      50.756  90.227  85.240  0.00  0.00     0.020 C 
ATOM     13  C   UNL d   1      50.431  87.005  85.144  0.00  0.00     0.206 C 
ATOM     14  C   UNL d   1      51.168  85.686  82.716  0.00  0.00     0.016 C 
ATOM     15  C   UNL d   1      50.881  85.548  85.128  0.00  0.00     0.184 C 
ATOM     16  C   UNL d   1      51.139  84.909  83.807  0.00  0.00    -0.015 C 
ATOM     17  C   UNL d   1      51.349  83.429  83.773  0.00  0.00     0.052 C 
ENDROOT
BRANCH   6  18
ATOM     18  C   UNL d   1      52.690  87.912  84.470  0.00  0.00     0.180 C 
BRANCH  18  19
ATOM     19  O   UNL d   1      53.426  87.803  83.277  0.00  0.00    -0.400 OA
ATOM     20  H   UNL d   1      54.369  87.827  83.513  0.00  0.00     0.209 HD
ENDBRANCH  18  19
ENDBRANCH   6  18
BRANCH  13  21
ATOM     21  O   UNL d   1      50.630  87.488  86.463  0.00  0.00    -0.387 OA
ATOM     22  H   UNL d   1      51.558  87.345  86.712  0.00  0.00     0.210 HD
ENDBRANCH  13  21
BRANCH  10  23
ATOM     23  O   UNL d   1      51.001  89.301  80.423  0.00  0.00    -0.393 OA
ATOM     24  H   UNL d   1      51.674  89.963  80.186  0.00  0.00     0.210 HD
ENDBRANCH  10  23
TORSDOF 4
ENDMDL
MODEL 9
REMARK minimizedAffinity -7.2939539
REMARK minimizedRMSD -1
REMARK  4 active torsions:
REMARK  status: ('A' for Active; 'I' for Inactive)
REMARK    1  A    between atoms: O_3  and  C_13 
REMARK    2  A    between atoms: O_4  and  C_16 
REMARK    3  A    between atoms: O_5  and  C_17 
REMARK    4  A    between atoms: C_9  and  C_17 
ROOT
ATOM      1  O   UNL d   1      50.496  92.030  85.667  0.00  0.00    -0.371 OA
ATOM      2  O   UNL d   1      49.801  89.825  82.851  0.00  0.00    -0.370 OA
ATOM      3  O   UNL d   1      52.400  85.886  84.433  0.00  0.00    -0.290 OA
ATOM      4  C   UNL d   1      52.116  90.863  84.154  0.00  0.00     0.010 C 
ATOM      5  C   UNL d   1      50.706  90.998  84.691  0.00  0.00     0.119 A 
ATOM      6  C   UNL d   1      52.202  89.400  83.503  0.00  0.00     0.054 C 
ATOM      7  C   UNL d   1      49.844  91.110  83.482  0.00  0.00     0.188 C 
ATOM      8  C   UNL d   1      52.087  91.967  83.027  0.00  0.00     0.048 C 
ATOM      9  C   UNL d   1      50.208  90.687  86.081  0.00  0.00     0.210 A 
ATOM     10  C   UNL d   1      50.597  92.170  82.664  0.00  0.00     0.151 C 
ATOM     11  C   UNL d   1      51.063  89.275  82.427  0.00  0.00     0.160 C 
ATOM     12  C   UNL d   1      53.212  91.196  85.169  0.00  0.00     0.020 C 
ATOM     13  C   UNL d   1      51.988  88.261  84.547  0.00  0.00     0.206 C 
ATOM     14  C   UNL d   1      50.769  87.866  81.990  0.00  0.00     0.016 C 
ATOM     15  C   UNL d   1      51.907  86.882  83.902  0.00  0.00     0.184 C 
ATOM     16  C   UNL d   1      51.157  86.750  82.622  0.00  0.00    -0.015 C 
ATOM     17  C   UNL d   1      50.876  85.372  82.113  0.00  0.00     0.052 C 
ENDROOT
BRANCH   6  18
ATOM     18  C   UNL d   1      53.583  89.187  82.819  0.00  0.00     0.180 C 
BRANCH  18  19
ATOM     19  O   UNL d   1      54.338  88.342  83.651  0.00  0.00    -0.400 OA
ATOM     20  H   UNL d   1      55.200  88.207  83.222  0.00  0.00     0.209 HD
ENDBRANCH  18  19
ENDBRANCH   6  18
BRANCH  13  21
ATOM     21  O   UNL d   1      53.042  88.217  85.496  0.00  0.00    -0.387 OA
ATOM     22  H   UNL d   1      53.855  87.927  85.049  0.00  0.00     0.210 HD
ENDBRANCH  13  21
BRANCH  10  23
ATOM     23  O   UNL d   1      50.345  92.069  81.278  0.00  0.00    -0.393 OA
ATOM     24  H   UNL d   1      50.911  92.721  80.830  0.00  0.00     0.210 HD
ENDBRANCH  10  23
TORSDOF 4
ENDMDL
MODEL 10
REMARK minimizedAffinity -7.26150846
REMARK minimizedRMSD -1
REMARK  4 active torsions:
REMARK  status: ('A' for Active; 'I' for Inactive)
REMARK    1  A    between atoms: O_3  and  C_13 
REMARK    2  A    between atoms: O_4  and  C_16 
REMARK    3  A    between atoms: O_5  and  C_17 
REMARK    4  A    between atoms: C_9  and  C_17 
ROOT
ATOM      1  O   UNL d   1      50.841  89.872  80.824  0.00  0.00    -0.371 OA
ATOM      2  O   UNL d   1      50.739  86.710  82.631  0.00  0.00    -0.370 OA
ATOM      3  O   UNL d   1      49.582  88.542  87.112  0.00  0.00    -0.290 OA
ATOM      4  C   UNL d   1      52.125  89.192  82.865  0.00  0.00     0.010 C 
ATOM      5  C   UNL d   1      50.967  88.950  81.917  0.00  0.00     0.119 A 
ATOM      6  C   UNL d   1      51.771  88.390  84.207  0.00  0.00     0.054 C 
ATOM      7  C   UNL d   1      51.097  87.524  81.509  0.00  0.00     0.188 C 
ATOM      8  C   UNL d   1      53.281  88.463  82.076  0.00  0.00     0.048 C 
ATOM      9  C   UNL d   1      49.731  89.794  81.729  0.00  0.00     0.210 A 
ATOM     10  C   UNL d   1      52.587  87.443  81.144  0.00  0.00     0.151 C 
ATOM     11  C   UNL d   1      51.522  86.885  83.828  0.00  0.00     0.160 C 
ATOM     12  C   UNL d   1      52.485  90.667  83.056  0.00  0.00     0.020 C 
ATOM     13  C   UNL d   1      50.479  88.918  84.904  0.00  0.00     0.206 C 
ATOM     14  C   UNL d   1      50.828  86.079  84.892  0.00  0.00     0.016 C 
ATOM     15  C   UNL d   1      50.054  88.053  86.085  0.00  0.00     0.184 C 
ATOM     16  C   UNL d   1      50.170  86.574  85.949  0.00  0.00    -0.015 C 
ATOM     17  C   UNL d   1      49.540  85.721  87.003  0.00  0.00     0.052 C 
ENDROOT
BRANCH   6  18
ATOM     18  C   UNL d   1      52.947  88.478  85.222  0.00  0.00     0.180 C 
BRANCH  18  19
ATOM     19  O   UNL d   1      53.768  87.356  85.013  0.00  0.00    -0.400 OA
ATOM     20  H   UNL d   1      54.504  87.412  85.645  0.00  0.00     0.209 HD
ENDBRANCH  18  19
ENDBRANCH   6  18
BRANCH  13  21
ATOM     21  O   UNL d   1      50.652  90.238  85.394  0.00  0.00    -0.387 OA
ATOM     22  H   UNL d   1      51.282  90.218  86.133  0.00  0.00     0.210 HD
ENDBRANCH  13  21
BRANCH  10  23
ATOM     23  O   UNL d   1      53.108  86.136  81.265  0.00  0.00    -0.393 OA
ATOM     24  H   UNL d   1      54.063  86.185  81.088  0.00  0.00     0.210 HD
ENDBRANCH  10  23
TORSDOF 4
ENDMDL
MODEL 11
REMARK minimizedAffinity -7.25690222
REMARK minimizedRMSD -1
REMARK  4 active torsions:
REMARK  status: ('A' for Active; 'I' for Inactive)
REMARK    1  A    between atoms: O_3  and  C_13 
REMARK    2  A    between atoms: O_4  and  C_16 
REMARK    3  A    between atoms: O_5  and  C_17 
REMARK    4  A    between atoms: C_9  and  C_17 
ROOT
ATOM      1  O   UNL d   1      53.726  87.642  84.614  0.00  0.00    -0.371 OA
ATOM      2  O   UNL d   1      52.313  90.217  82.458  0.00  0.00    -0.370 OA
ATOM      3  O   UNL d   1      48.529  91.549  85.405  0.00  0.00    -0.290 OA
ATOM      4  C   UNL d   1      51.395  87.827  83.715  0.00  0.00     0.010 C 
ATOM      5  C   UNL d   1      52.733  88.478  84.001  0.00  0.00     0.119 A 
ATOM      6  C   UNL d   1      50.353  89.029  83.514  0.00  0.00     0.054 C 
ATOM      7  C   UNL d   1      53.150  89.082  82.705  0.00  0.00     0.188 C 
ATOM      8  C   UNL d   1      51.716  87.139  82.331  0.00  0.00     0.048 C 
ATOM      9  C   UNL d   1      53.333  88.813  85.344  0.00  0.00     0.210 A 
ATOM     10  C   UNL d   1      52.910  87.918  81.732  0.00  0.00     0.151 C 
ATOM     11  C   UNL d   1      50.897  89.965  82.375  0.00  0.00     0.160 C 
ATOM     12  C   UNL d   1      50.981  86.761  84.733  0.00  0.00     0.020 C 
ATOM     13  C   UNL d   1      50.182  89.900  84.796  0.00  0.00     0.206 C 
ATOM     14  C   UNL d   1      50.243  91.318  82.313  0.00  0.00     0.016 C 
ATOM     15  C   UNL d   1      49.320  91.135  84.557  0.00  0.00     0.184 C 
ATOM     16  C   UNL d   1      49.497  91.875  83.277  0.00  0.00    -0.015 C 
ATOM     17  C   UNL d   1      48.831  93.207  83.139  0.00  0.00     0.052 C 
ENDROOT
BRANCH   6  18
ATOM     18  C   UNL d   1      48.956  88.478  83.106  0.00  0.00     0.180 C 
BRANCH  18  19
ATOM     19  O   UNL d   1      49.038  88.079  81.761  0.00  0.00    -0.400 OA
ATOM     20  H   UNL d   1      48.166  87.732  81.506  0.00  0.00     0.209 HD
ENDBRANCH  18  19
ENDBRANCH   6  18
BRANCH  13  21
ATOM     21  O   UNL d   1      49.579  89.167  85.851  0.00  0.00    -0.387 OA
ATOM     22  H   UNL d   1      48.655  88.980  85.614  0.00  0.00     0.210 HD
ENDBRANCH  13  21
BRANCH  10  23
ATOM     23  O   UNL d   1      52.680  88.354  80.408  0.00  0.00    -0.393 OA
ATOM     24  H   UNL d   1      52.467  87.569  79.875  0.00  0.00     0.210 HD
ENDBRANCH  10  23
TORSDOF 4
ENDMDL
MODEL 12
REMARK minimizedAffinity -7.24467993
REMARK minimizedRMSD -1
REMARK  4 active torsions:
REMARK  status: ('A' for Active; 'I' for Inactive)
REMARK    1  A    between atoms: O_3  and  C_13 
REMARK    2  A    between atoms: O_4  and  C_16 
REMARK    3  A    between atoms: O_5  and  C_17 
REMARK    4  A    between atoms: C_9  and  C_17 
ROOT
ATOM      1  O   UNL d   1      50.517  86.067  83.242  0.00  0.00    -0.371 OA
ATOM      2  O   UNL d   1      53.129  88.606  83.302  0.00  0.00    -0.370 OA
ATOM      3  O   UNL d   1      50.929  91.750  86.471  0.00  0.00    -0.290 OA
ATOM      4  C   UNL d   1      50.338  88.510  82.719  0.00  0.00     0.010 C 
ATOM      5  C   UNL d   1      51.118  87.367  83.337  0.00  0.00     0.119 A 
ATOM      6  C   UNL d   1      50.935  89.851  83.366  0.00  0.00     0.054 C 
ATOM      7  C   UNL d   1      52.478  87.462  82.738  0.00  0.00     0.188 C 
ATOM      8  C   UNL d   1      50.797  88.372  81.215  0.00  0.00     0.048 C 
ATOM      9  C   UNL d   1      50.769  86.563  84.565  0.00  0.00     0.210 A 
ATOM     10  C   UNL d   1      52.146  87.618  81.246  0.00  0.00     0.151 C 
ATOM     11  C   UNL d   1      52.483  89.878  83.099  0.00  0.00     0.160 C 
ATOM     12  C   UNL d   1      48.818  88.357  82.807  0.00  0.00     0.020 C 
ATOM     13  C   UNL d   1      50.723  89.922  84.909  0.00  0.00     0.206 C 
ATOM     14  C   UNL d   1      53.245  90.862  83.943  0.00  0.00     0.016 C 
ATOM     15  C   UNL d   1      51.431  91.114  85.545  0.00  0.00     0.184 C 
ATOM     16  C   UNL d   1      52.792  91.466  85.050  0.00  0.00    -0.015 C 
ATOM     17  C   UNL d   1      53.579  92.476  85.822  0.00  0.00     0.052 C 
ENDROOT
BRANCH   6  18
ATOM     18  C   UNL d   1      50.279  91.106  82.722  0.00  0.00     0.180 C 
BRANCH  18  19
ATOM     19  O   UNL d   1      51.098  91.507  81.652  0.00  0.00    -0.400 OA
ATOM     20  H   UNL d   1      50.687  92.290  81.248  0.00  0.00     0.209 HD
ENDBRANCH  18  19
ENDBRANCH   6  18
BRANCH  13  21
ATOM     21  O   UNL d   1      49.348  90.026  85.245  0.00  0.00    -0.387 OA
ATOM     22  H   UNL d   1      49.021  90.895  84.959  0.00  0.00     0.210 HD
ENDBRANCH  13  21
BRANCH  10  23
ATOM     23  O   UNL d   1      53.168  88.277  80.527  0.00  0.00    -0.393 OA
ATOM     24  H   UNL d   1      52.851  88.400  79.616  0.00  0.00     0.210 HD
ENDBRANCH  10  23
TORSDOF 4
ENDMDL
MODEL 13
REMARK minimizedAffinity -7.20868349
REMARK minimizedRMSD -1
REMARK  4 active torsions:
REMARK  status: ('A' for Active; 'I' for Inactive)
REMARK    1  A    between atoms: O_3  and  C_13 
REMARK    2  A    between atoms: O_4  and  C_16 
REMARK    3  A    between atoms: O_5  and  C_17 
REMARK    4  A    between atoms: C_9  and  C_17 
ROOT
ATOM      1  O   UNL d   1      49.588  84.454  86.591  0.00  0.00    -0.371 OA
ATOM      2  O   UNL d   1      52.474  85.985  84.979  0.00  0.00    -0.370 OA
ATOM      3  O   UNL d   1      50.648  90.598  84.586  0.00  0.00    -0.290 OA
ATOM      4  C   UNL d   1      49.692  85.701  84.421  0.00  0.00     0.010 C 
ATOM      5  C   UNL d   1      50.335  85.342  85.745  0.00  0.00     0.119 A 
ATOM      6  C   UNL d   1      50.438  87.027  83.913  0.00  0.00     0.054 C 
ATOM      7  C   UNL d   1      51.697  84.856  85.391  0.00  0.00     0.188 C 
ATOM      8  C   UNL d   1      50.133  84.456  83.556  0.00  0.00     0.048 C 
ATOM      9  C   UNL d   1      49.894  85.748  87.130  0.00  0.00     0.210 A 
ATOM     10  C   UNL d   1      51.386  83.875  84.250  0.00  0.00     0.151 C 
ATOM     11  C   UNL d   1      51.979  86.728  83.848  0.00  0.00     0.160 C 
ATOM     12  C   UNL d   1      48.164  85.781  84.462  0.00  0.00     0.020 C 
ATOM     13  C   UNL d   1      50.235  88.238  84.874  0.00  0.00     0.206 C 
ATOM     14  C   UNL d   1      52.849  87.951  83.750  0.00  0.00     0.016 C 
ATOM     15  C   UNL d   1      51.075  89.448  84.479  0.00  0.00     0.184 C 
ATOM     16  C   UNL d   1      52.467  89.210  84.005  0.00  0.00    -0.015 C 
ATOM     17  C   UNL d   1      53.365  90.395  83.843  0.00  0.00     0.052 C 
ENDROOT
BRANCH   6  18
ATOM     18  C   UNL d   1      49.931  87.431  82.499  0.00  0.00     0.180 C 
BRANCH  18  19
ATOM     19  O   UNL d   1      50.839  86.909  81.562  0.00  0.00    -0.400 OA
ATOM     20  H   UNL d   1      50.520  87.160  80.678  0.00  0.00     0.209 HD
ENDBRANCH  18  19
ENDBRANCH   6  18
BRANCH  13  21
ATOM     21  O   UNL d   1      48.881  88.662  84.903  0.00  0.00    -0.387 OA
ATOM     22  H   UNL d   1      48.655  89.052  84.042  0.00  0.00     0.210 HD
ENDBRANCH  13  21
BRANCH  10  23
ATOM     23  O   UNL d   1      52.477  83.700  83.371  0.00  0.00    -0.393 OA
ATOM     24  H   UNL d   1      52.177  83.128  82.643  0.00  0.00     0.210 HD
ENDBRANCH  10  23
TORSDOF 4
ENDMDL
MODEL 14
REMARK minimizedAffinity -7.19138956
REMARK minimizedRMSD -1
REMARK  4 active torsions:
REMARK  status: ('A' for Active; 'I' for Inactive)
REMARK    1  A    between atoms: O_3  and  C_13 
REMARK    2  A    between atoms: O_4  and  C_16 
REMARK    3  A    between atoms: O_5  and  C_17 
REMARK    4  A    between atoms: C_9  and  C_17 
ROOT
ATOM      1  O   UNL d   1      48.554  86.742  86.938  0.00  0.00    -0.371 OA
ATOM      2  O   UNL d   1      49.165  86.834  83.348  0.00  0.00    -0.370 OA
ATOM      3  O   UNL d   1      53.916  88.308  83.520  0.00  0.00    -0.290 OA
ATOM      4  C   UNL d   1      49.362  88.654  85.536  0.00  0.00     0.010 C 
ATOM      5  C   UNL d   1      49.112  87.167  85.686  0.00  0.00     0.119 A 
ATOM      6  C   UNL d   1      50.401  88.807  84.324  0.00  0.00     0.054 C 
ATOM      7  C   UNL d   1      48.306  86.790  84.492  0.00  0.00     0.188 C 
ATOM      8  C   UNL d   1      47.924  89.129  85.091  0.00  0.00     0.048 C 
ATOM      9  C   UNL d   1      49.831  86.192  86.586  0.00  0.00     0.210 A 
ATOM     10  C   UNL d   1      47.228  87.885  84.492  0.00  0.00     0.151 C 
ATOM     11  C   UNL d   1      49.789  88.101  83.060  0.00  0.00     0.160 C 
ATOM     12  C   UNL d   1      49.757  89.362  86.834  0.00  0.00     0.020 C 
ATOM     13  C   UNL d   1      51.775  88.131  84.619  0.00  0.00     0.206 C 
ATOM     14  C   UNL d   1      50.774  87.831  81.957  0.00  0.00     0.016 C 
ATOM     15  C   UNL d   1      52.703  88.134  83.408  0.00  0.00     0.184 C 
ATOM     16  C   UNL d   1      52.109  87.861  82.070  0.00  0.00    -0.015 C 
ATOM     17  C   UNL d   1      53.040  87.631  80.923  0.00  0.00     0.052 C 
ENDROOT
BRANCH   6  18
ATOM     18  C   UNL d   1      50.651  90.309  84.005  0.00  0.00     0.180 C 
BRANCH  18  19
ATOM     19  O   UNL d   1      49.770  90.672  82.972  0.00  0.00    -0.400 OA
ATOM     20  H   UNL d   1      49.925  91.611  82.775  0.00  0.00     0.209 HD
ENDBRANCH  18  19
ENDBRANCH   6  18
BRANCH  13  21
ATOM     21  O   UNL d   1      52.464  88.783  85.674  0.00  0.00    -0.387 OA
ATOM     22  H   UNL d   1      52.737  89.665  85.372  0.00  0.00     0.210 HD
ENDBRANCH  13  21
BRANCH  10  23
ATOM     23  O   UNL d   1      46.687  88.116  83.208  0.00  0.00    -0.393 OA
ATOM     24  H   UNL d   1      46.071  88.865  83.281  0.00  0.00     0.210 HD
ENDBRANCH  10  23
TORSDOF 4
ENDMDL
MODEL 15
REMARK minimizedAffinity -7.14431715
REMARK minimizedRMSD -1
REMARK  4 active torsions:
REMARK  status: ('A' for Active; 'I' for Inactive)
REMARK    1  A    between atoms: O_3  and  C_13 
REMARK    2  A    between atoms: O_4  and  C_16 
REMARK    3  A    between atoms: O_5  and  C_17 
REMARK    4  A    between atoms: C_9  and  C_17 
ROOT
ATOM      1  O   UNL d   1      30.612  71.951  42.309  0.00  0.00    -0.371 OA
ATOM      2  O   UNL d   1      28.309  74.667  43.078  0.00  0.00    -0.370 OA
ATOM      3  O   UNL d   1      31.710  78.165  44.062  0.00  0.00    -0.290 OA
ATOM      4  C   UNL d   1      30.468  73.341  44.388  0.00  0.00     0.010 C 
ATOM      5  C   UNL d   1      30.107  73.143  42.930  0.00  0.00     0.119 A 
ATOM      6  C   UNL d   1      30.235  74.898  44.693  0.00  0.00     0.054 C 
ATOM      7  C   UNL d   1      28.626  73.286  42.877  0.00  0.00     0.188 C 
ATOM      8  C   UNL d   1      29.340  72.472  45.069  0.00  0.00     0.048 C 
ATOM      9  C   UNL d   1      31.024  73.199  41.732  0.00  0.00     0.210 A 
ATOM     10  C   UNL d   1      28.189  72.381  44.039  0.00  0.00     0.151 C 
ATOM     11  C   UNL d   1      28.751  75.255  44.317  0.00  0.00     0.160 C 
ATOM     12  C   UNL d   1      31.842  72.793  44.779  0.00  0.00     0.020 C 
ATOM     13  C   UNL d   1      31.167  75.824  43.853  0.00  0.00     0.206 C 
ATOM     14  C   UNL d   1      28.476  76.728  44.193  0.00  0.00     0.016 C 
ATOM     15  C   UNL d   1      30.834  77.302  44.021  0.00  0.00     0.184 C 
ATOM     16  C   UNL d   1      29.398  77.694  44.080  0.00  0.00    -0.015 C 
ATOM     17  C   UNL d   1      29.064  79.150  44.009  0.00  0.00     0.052 C 
ENDROOT
BRANCH   6  18
ATOM     18  C   UNL d   1      30.472  75.201  46.200  0.00  0.00     0.180 C 
BRANCH  18  19
ATOM     19  O   UNL d   1      29.214  75.420  46.788  0.00  0.00    -0.400 OA
ATOM     20  H   UNL d   1      29.362  75.607  47.731  0.00  0.00     0.209 HD
ENDBRANCH  18  19
ENDBRANCH   6  18
BRANCH  13  21
ATOM     21  O   UNL d   1      32.530  75.660  44.213  0.00  0.00    -0.387 OA
ATOM     22  H   UNL d   1      32.661  76.008  45.110  0.00  0.00     0.210 HD
ENDBRANCH  13  21
BRANCH  10  23
ATOM     23  O   UNL d   1      26.935  72.749  44.574  0.00  0.00    -0.393 OA
ATOM     24  H   UNL d   1      26.767  72.179  45.344  0.00  0.00     0.210 HD
ENDBRANCH  10  23
TORSDOF 4
ENDMDL
MODEL 16
REMARK minimizedAffinity -7.02974606
REMARK minimizedRMSD -1
REMARK  4 active torsions:
REMARK  status: ('A' for Active; 'I' for Inactive)
REMARK    1  A    between atoms: O_3  and  C_13 
REMARK    2  A    between atoms: O_4  and  C_16 
REMARK    3  A    between atoms: O_5  and  C_17 
REMARK    4  A    between atoms: C_9  and  C_17 
ROOT
ATOM      1  O   UNL d   1      43.428  77.452  24.933  0.00  0.00    -0.371 OA
ATOM      2  O   UNL d   1      44.360  77.534  28.454  0.00  0.00    -0.370 OA
ATOM      3  O   UNL d   1      49.199  78.524  27.838  0.00  0.00    -0.290 OA
ATOM      4  C   UNL d   1      45.179  76.112  26.121  0.00  0.00     0.010 C 
ATOM      5  C   UNL d   1      44.241  77.301  26.106  0.00  0.00     0.119 A 
ATOM      6  C   UNL d   1      46.281  76.432  27.242  0.00  0.00     0.054 C 
ATOM      7  C   UNL d   1      43.475  77.202  27.379  0.00  0.00     0.188 C 
ATOM      8  C   UNL d   1      44.190  74.990  26.625  0.00  0.00     0.048 C 
ATOM      9  C   UNL d   1      44.319  78.533  25.238  0.00  0.00     0.210 A 
ATOM     10  C   UNL d   1      43.050  75.726  27.367  0.00  0.00     0.151 C 
ATOM     11  C   UNL d   1      45.534  76.711  28.597  0.00  0.00     0.160 C 
ATOM     12  C   UNL d   1      45.733  75.727  24.747  0.00  0.00     0.020 C 
ATOM     13  C   UNL d   1      47.133  77.694  26.907  0.00  0.00     0.206 C 
ATOM     14  C   UNL d   1      46.377  77.380  29.647  0.00  0.00     0.016 C 
ATOM     15  C   UNL d   1      48.066  78.092  28.047  0.00  0.00     0.184 C 
ATOM     16  C   UNL d   1      47.548  77.998  29.440  0.00  0.00    -0.015 C 
ATOM     17  C   UNL d   1      48.367  78.604  30.535  0.00  0.00     0.052 C 
ENDROOT
BRANCH   6  18
ATOM     18  C   UNL d   1      47.243  75.223  27.423  0.00  0.00     0.180 C 
BRANCH  18  19
ATOM     19  O   UNL d   1      46.850  74.544  28.590  0.00  0.00    -0.400 OA
ATOM     20  H   UNL d   1      47.450  73.787  28.702  0.00  0.00     0.209 HD
ENDBRANCH  18  19
ENDBRANCH   6  18
BRANCH  13  21
ATOM     21  O   UNL d   1      47.941  77.490  25.759  0.00  0.00    -0.387 OA
ATOM     22  H   UNL d   1      48.628  76.836  25.971  0.00  0.00     0.210 HD
ENDBRANCH  13  21
BRANCH  10  23
ATOM     23  O   UNL d   1      42.813  75.218  28.663  0.00  0.00    -0.393 OA
ATOM     24  H   UNL d   1      42.622  74.268  28.574  0.00  0.00     0.210 HD
ENDBRANCH  10  23
TORSDOF 4
ENDMDL
MODEL 17
REMARK minimizedAffinity -6.84614277
REMARK minimizedRMSD -1
REMARK  4 active torsions:
REMARK  status: ('A' for Active; 'I' for Inactive)
REMARK    1  A    between atoms: O_3  and  C_13 
REMARK    2  A    between atoms: O_4  and  C_16 
REMARK    3  A    between atoms: O_5  and  C_17 
REMARK    4  A    between atoms: C_9  and  C_17 
ROOT
ATOM      1  O   UNL d   1      50.658  89.828  87.156  0.00  0.00    -0.371 OA
ATOM      2  O   UNL d   1      50.941  86.905  84.999  0.00  0.00    -0.370 OA
ATOM      3  O   UNL d   1      52.637  89.234  80.941  0.00  0.00    -0.290 OA
ATOM      4  C   UNL d   1      49.618  89.431  84.912  0.00  0.00     0.010 C 
ATOM      5  C   UNL d   1      50.652  89.048  85.951  0.00  0.00     0.119 A 
ATOM      6  C   UNL d   1      50.119  88.787  83.532  0.00  0.00     0.054 C 
ATOM      7  C   UNL d   1      50.461  87.587  86.164  0.00  0.00     0.188 C 
ATOM      8  C   UNL d   1      48.369  88.641  85.467  0.00  0.00     0.048 C 
ATOM      9  C   UNL d   1      51.867  89.832  86.383  0.00  0.00     0.210 A 
ATOM     10  C   UNL d   1      48.937  87.499  86.341  0.00  0.00     0.151 C 
ATOM     11  C   UNL d   1      50.307  87.242  83.750  0.00  0.00     0.160 C 
ATOM     12  C   UNL d   1      49.297  90.926  84.862  0.00  0.00     0.020 C 
ATOM     13  C   UNL d   1      51.489  89.363  83.059  0.00  0.00     0.206 C 
ATOM     14  C   UNL d   1      51.112  86.553  82.683  0.00  0.00     0.016 C 
ATOM     15  C   UNL d   1      52.042  88.637  81.838  0.00  0.00     0.184 C 
ATOM     16  C   UNL d   1      51.896  87.156  81.778  0.00  0.00    -0.015 C 
ATOM     17  C   UNL d   1      52.637  86.420  80.708  0.00  0.00     0.052 C 
ENDROOT
BRANCH   6  18
ATOM     18  C   UNL d   1      49.072  89.025  82.406  0.00  0.00     0.180 C 
BRANCH  18  19
ATOM     19  O   UNL d   1      48.171  87.946  82.435  0.00  0.00    -0.400 OA
ATOM     20  H   UNL d   1      47.515  88.097  81.733  0.00  0.00     0.209 HD
ENDBRANCH  18  19
ENDBRANCH   6  18
BRANCH  13  21
ATOM     21  O   UNL d   1      51.389  90.737  82.718  0.00  0.00    -0.387 OA
ATOM     22  H   UNL d   1      50.850  90.822  81.914  0.00  0.00     0.210 HD
ENDBRANCH  13  21
BRANCH  10  23
ATOM     23  O   UNL d   1      48.422  86.229  86.001  0.00  0.00    -0.393 OA
ATOM     24  H   UNL d   1      47.453  86.279  86.071  0.00  0.00     0.210 HD
ENDBRANCH  10  23
TORSDOF 4
ENDMDL
MODEL 18
REMARK minimizedAffinity -6.79211426
REMARK minimizedRMSD -1
REMARK  4 active torsions:
REMARK  status: ('A' for Active; 'I' for Inactive)
REMARK    1  A    between atoms: O_3  and  C_13 
REMARK    2  A    between atoms: O_4  and  C_16 
REMARK    3  A    between atoms: O_5  and  C_17 
REMARK    4  A    between atoms: C_9  and  C_17 
ROOT
ATOM      1  O   UNL d   1      43.457  74.195  26.152  0.00  0.00    -0.371 OA
ATOM      2  O   UNL d   1      46.719  75.653  25.441  0.00  0.00    -0.370 OA
ATOM      3  O   UNL d   1      47.009  78.612  29.433  0.00  0.00    -0.290 OA
ATOM      4  C   UNL d   1      44.076  76.611  25.923  0.00  0.00     0.010 C 
ATOM      5  C   UNL d   1      44.508  75.172  26.119  0.00  0.00     0.119 A 
ATOM      6  C   UNL d   1      45.311  77.512  26.407  0.00  0.00     0.054 C 
ATOM      7  C   UNL d   1      45.538  74.934  25.070  0.00  0.00     0.188 C 
ATOM      8  C   UNL d   1      43.950  76.647  24.350  0.00  0.00     0.048 C 
ATOM      9  C   UNL d   1      44.281  74.291  27.322  0.00  0.00     0.210 A 
ATOM     10  C   UNL d   1      44.843  75.500  23.822  0.00  0.00     0.151 C 
ATOM     11  C   UNL d   1      46.583  77.080  25.591  0.00  0.00     0.160 C 
ATOM     12  C   UNL d   1      42.725  76.956  26.553  0.00  0.00     0.020 C 
ATOM     13  C   UNL d   1      45.639  77.325  27.920  0.00  0.00     0.206 C 
ATOM     14  C   UNL d   1      47.887  77.557  26.168  0.00  0.00     0.016 C 
ATOM     15  C   UNL d   1      46.911  78.054  28.340  0.00  0.00     0.184 C 
ATOM     16  C   UNL d   1      48.072  78.031  27.408  0.00  0.00    -0.015 C 
ATOM     17  C   UNL d   1      49.386  78.538  27.911  0.00  0.00     0.052 C 
ENDROOT
BRANCH   6  18
ATOM     18  C   UNL d   1      45.022  79.019  26.150  0.00  0.00     0.180 C 
BRANCH  18  19
ATOM     19  O   UNL d   1      45.794  79.413  25.043  0.00  0.00    -0.400 OA
ATOM     20  H   UNL d   1      45.611  80.354  24.881  0.00  0.00     0.209 HD
ENDBRANCH  18  19
ENDBRANCH   6  18
BRANCH  13  21
ATOM     21  O   UNL d   1      44.590  77.806  28.746  0.00  0.00    -0.387 OA
ATOM     22  H   UNL d   1      44.550  78.774  28.669  0.00  0.00     0.210 HD
ENDBRANCH  13  21
BRANCH  10  23
ATOM     23  O   UNL d   1      45.758  75.918  22.832  0.00  0.00    -0.393 OA
ATOM     24  H   UNL d   1      45.244  76.327  22.113  0.00  0.00     0.210 HD
ENDBRANCH  10  23
TORSDOF 4
ENDMDL
MODEL 19
REMARK minimizedAffinity -6.74736786
REMARK minimizedRMSD -1
REMARK  4 active torsions:
REMARK  status: ('A' for Active; 'I' for Inactive)
REMARK    1  A    between atoms: O_3  and  C_13 
REMARK    2  A    between atoms: O_4  and  C_16 
REMARK    3  A    between atoms: O_5  and  C_17 
REMARK    4  A    between atoms: C_9  and  C_17 
ROOT
ATOM      1  O   UNL d   1      50.695  93.154  83.723  0.00  0.00    -0.371 OA
ATOM      2  O   UNL d   1      52.906  90.292  83.281  0.00  0.00    -0.370 OA
ATOM      3  O   UNL d   1      49.492  87.058  81.650  0.00  0.00    -0.290 OA
ATOM      4  C   UNL d   1      50.510  90.863  84.719  0.00  0.00     0.010 C 
ATOM      5  C   UNL d   1      51.117  91.782  83.679  0.00  0.00     0.119 A 
ATOM      6  C   UNL d   1      50.732  89.371  84.173  0.00  0.00     0.054 C 
ATOM      7  C   UNL d   1      52.588  91.586  83.805  0.00  0.00     0.188 C 
ATOM      8  C   UNL d   1      51.472  91.153  85.936  0.00  0.00     0.048 C 
ATOM      9  C   UNL d   1      50.429  92.439  82.507  0.00  0.00     0.210 A 
ATOM     10  C   UNL d   1      52.784  91.698  85.324  0.00  0.00     0.151 C 
ATOM     11  C   UNL d   1      52.269  89.167  83.916  0.00  0.00     0.160 C 
ATOM     12  C   UNL d   1      49.072  91.212  85.109  0.00  0.00     0.020 C 
ATOM     13  C   UNL d   1      49.992  89.105  82.826  0.00  0.00     0.206 C 
ATOM     14  C   UNL d   1      52.607  87.972  83.067  0.00  0.00     0.016 C 
ATOM     15  C   UNL d   1      50.335  87.746  82.226  0.00  0.00     0.184 C 
ATOM     16  C   UNL d   1      51.749  87.283  82.303  0.00  0.00    -0.015 C 
ATOM     17  C   UNL d   1      52.134  86.071  81.516  0.00  0.00     0.052 C 
ENDROOT
BRANCH   6  18
ATOM     18  C   UNL d   1      50.241  88.329  85.217  0.00  0.00     0.180 C 
BRANCH  18  19
ATOM     19  O   UNL d   1      51.376  87.828  85.878  0.00  0.00    -0.400 OA
ATOM     20  H   UNL d   1      51.069  87.177  86.532  0.00  0.00     0.209 HD
ENDBRANCH  18  19
ENDBRANCH   6  18
BRANCH  13  21
ATOM     21  O   UNL d   1      48.583  89.147  82.986  0.00  0.00    -0.387 OA
ATOM     22  H   UNL d   1      48.305  88.384  83.520  0.00  0.00     0.210 HD
ENDBRANCH  13  21
BRANCH  10  23
ATOM     23  O   UNL d   1      53.934  91.014  85.776  0.00  0.00    -0.393 OA
ATOM     24  H   UNL d   1      53.945  91.072  86.747  0.00  0.00     0.210 HD
ENDBRANCH  10  23
TORSDOF 4
ENDMDL
MODEL 20
REMARK minimizedAffinity -6.70820189
REMARK minimizedRMSD -1
REMARK  4 active torsions:
REMARK  status: ('A' for Active; 'I' for Inactive)
REMARK    1  A    between atoms: O_3  and  C_13 
REMARK    2  A    between atoms: O_4  and  C_16 
REMARK    3  A    between atoms: O_5  and  C_17 
REMARK    4  A    between atoms: C_9  and  C_17 
ROOT
ATOM      1  O   UNL d   1      63.581  96.812  51.815  0.00  0.00    -0.371 OA
ATOM      2  O   UNL d   1      60.870  94.972  53.406  0.00  0.00    -0.370 OA
ATOM      3  O   UNL d   1      63.638  91.449  55.573  0.00  0.00    -0.290 OA
ATOM      4  C   UNL d   1      62.990  94.388  51.590  0.00  0.00     0.010 C 
ATOM      5  C   UNL d   1      62.852  95.695  52.345  0.00  0.00     0.119 A 
ATOM      6  C   UNL d   1      62.522  93.240  52.607  0.00  0.00     0.054 C 
ATOM      7  C   UNL d   1      61.384  95.917  52.462  0.00  0.00     0.188 C 
ATOM      8  C   UNL d   1      61.902  94.605  50.466  0.00  0.00     0.048 C 
ATOM      9  C   UNL d   1      63.902  96.413  53.155  0.00  0.00     0.210 A 
ATOM     10  C   UNL d   1      60.918  95.661  51.021  0.00  0.00     0.151 C 
ATOM     11  C   UNL d   1      61.067  93.579  53.095  0.00  0.00     0.160 C 
ATOM     12  C   UNL d   1      64.360  94.175  50.943  0.00  0.00     0.020 C 
ATOM     13  C   UNL d   1      63.430  93.147  53.871  0.00  0.00     0.206 C 
ATOM     14  C   UNL d   1      60.624  92.820  54.315  0.00  0.00     0.016 C 
ATOM     15  C   UNL d   1      62.892  92.170  54.911  0.00  0.00     0.184 C 
ATOM     16  C   UNL d   1      61.422  92.145  55.153  0.00  0.00    -0.015 C 
ATOM     17  C   UNL d   1      60.918  91.366  56.326  0.00  0.00     0.052 C 
ENDROOT
BRANCH   6  18
ATOM     18  C   UNL d   1      62.519  91.854  51.901  0.00  0.00     0.180 C 
BRANCH  18  19
ATOM     19  O   UNL d   1      63.746  91.722  51.227  0.00  0.00    -0.400 OA
ATOM     20  H   UNL d   1      63.745  90.855  50.787  0.00  0.00     0.209 HD
ENDBRANCH  18  19
ENDBRANCH   6  18
BRANCH  13  21
ATOM     21  O   UNL d   1      64.744  92.723  53.542  0.00  0.00    -0.387 OA
ATOM     22  H   UNL d   1      64.711  91.796  53.252  0.00  0.00     0.210 HD
ENDBRANCH  13  21
BRANCH  10  23
ATOM     23  O   UNL d   1      59.568  95.252  50.950  0.00  0.00    -0.393 OA
ATOM     24  H   UNL d   1      59.375  95.042  50.020  0.00  0.00     0.210 HD
ENDBRANCH  10  23
TORSDOF 4
ENDMDL
MODEL 21
REMARK minimizedAffinity -6.6950264
REMARK minimizedRMSD -1
REMARK  4 active torsions:
REMARK  status: ('A' for Active; 'I' for Inactive)
REMARK    1  A    between atoms: O_3  and  C_13 
REMARK    2  A    between atoms: O_4  and  C_16 
REMARK    3  A    between atoms: O_5  and  C_17 
REMARK    4  A    between atoms: C_9  and  C_17 
ROOT
ATOM      1  O   UNL d   1      52.501  86.853  81.685  0.00  0.00    -0.371 OA
ATOM      2  O   UNL d   1      49.730  87.883  83.814  0.00  0.00    -0.370 OA
ATOM      3  O   UNL d   1      49.760  92.723  82.651  0.00  0.00    -0.290 OA
ATOM      4  C   UNL d   1      52.467  88.609  83.471  0.00  0.00     0.010 C 
ATOM      5  C   UNL d   1      51.705  87.695  82.533  0.00  0.00     0.119 A 
ATOM      6  C   UNL d   1      51.429  89.747  83.919  0.00  0.00     0.054 C 
ATOM      7  C   UNL d   1      50.747  86.962  83.404  0.00  0.00     0.188 C 
ATOM      8  C   UNL d   1      52.738  87.611  84.664  0.00  0.00     0.048 C 
ATOM      9  C   UNL d   1      51.619  87.775  81.028  0.00  0.00     0.210 A 
ATOM     10  C   UNL d   1      51.661  86.507  84.552  0.00  0.00     0.151 C 
ATOM     11  C   UNL d   1      50.171  89.044  84.545  0.00  0.00     0.160 C 
ATOM     12  C   UNL d   1      53.800  89.116  82.915  0.00  0.00     0.020 C 
ATOM     13  C   UNL d   1      50.934  90.615  82.722  0.00  0.00     0.206 C 
ATOM     14  C   UNL d   1      48.962  89.929  84.676  0.00  0.00     0.016 C 
ATOM     15  C   UNL d   1      49.828  91.587  83.120  0.00  0.00     0.184 C 
ATOM     16  C   UNL d   1      48.779  91.106  84.062  0.00  0.00    -0.015 C 
ATOM     17  C   UNL d   1      47.574  91.967  84.270  0.00  0.00     0.052 C 
ENDROOT
BRANCH   6  18
ATOM     18  C   UNL d   1      52.074  90.688  84.976  0.00  0.00     0.180 C 
BRANCH  18  19
ATOM     19  O   UNL d   1      51.816  90.137  86.243  0.00  0.00    -0.400 OA
ATOM     20  H   UNL d   1      52.220  90.725  86.904  0.00  0.00     0.209 HD
ENDBRANCH  18  19
ENDBRANCH   6  18
BRANCH  13  21
ATOM     21  O   UNL d   1      51.986  91.387  82.165  0.00  0.00    -0.387 OA
ATOM     22  H   UNL d   1      52.251  92.066  82.808  0.00  0.00     0.210 HD
ENDBRANCH  13  21
BRANCH  10  23
ATOM     23  O   UNL d   1      50.956  86.295  85.757  0.00  0.00    -0.393 OA
ATOM     24  H   UNL d   1      51.611  86.082  86.445  0.00  0.00     0.210 HD
ENDBRANCH  10  23
TORSDOF 4
ENDMDL
MODEL 22
REMARK minimizedAffinity -6.62457657
REMARK minimizedRMSD -1
REMARK  4 active torsions:
REMARK  status: ('A' for Active; 'I' for Inactive)
REMARK    1  A    between atoms: O_3  and  C_13 
REMARK    2  A    between atoms: O_4  and  C_16 
REMARK    3  A    between atoms: O_5  and  C_17 
REMARK    4  A    between atoms: C_9  and  C_17 
ROOT
ATOM      1  O   UNL d   1      19.531  89.029  56.902  0.00  0.00    -0.371 OA
ATOM      2  O   UNL d   1      20.274  89.281  60.460  0.00  0.00    -0.370 OA
ATOM      3  O   UNL d   1      23.188  93.311  60.246  0.00  0.00    -0.290 OA
ATOM      4  C   UNL d   1      21.764  89.066  58.037  0.00  0.00     0.010 C 
ATOM      5  C   UNL d   1      20.271  89.318  58.098  0.00  0.00     0.119 A 
ATOM      6  C   UNL d   1      22.402  89.899  59.250  0.00  0.00     0.054 C 
ATOM      7  C   UNL d   1      19.806  88.578  59.304  0.00  0.00     0.188 C 
ATOM      8  C   UNL d   1      21.794  87.520  58.354  0.00  0.00     0.048 C 
ATOM      9  C   UNL d   1      19.479  90.381  57.378  0.00  0.00     0.210 A 
ATOM     10  C   UNL d   1      20.478  87.211  59.104  0.00  0.00     0.151 C 
ATOM     11  C   UNL d   1      21.701  89.442  60.581  0.00  0.00     0.160 C 
ATOM     12  C   UNL d   1      22.391  89.320  56.664  0.00  0.00     0.020 C 
ATOM     13  C   UNL d   1      22.181  91.436  59.108  0.00  0.00     0.206 C 
ATOM     14  C   UNL d   1      21.912  90.367  61.747  0.00  0.00     0.016 C 
ATOM     15  C   UNL d   1      22.642  92.212  60.338  0.00  0.00     0.184 C 
ATOM     16  C   UNL d   1      22.362  91.628  61.680  0.00  0.00    -0.015 C 
ATOM     17  C   UNL d   1      22.598  92.486  62.881  0.00  0.00     0.052 C 
ENDROOT
BRANCH   6  18
ATOM     18  C   UNL d   1      23.930  89.630  59.353  0.00  0.00     0.180 C 
BRANCH  18  19
ATOM     19  O   UNL d   1      24.124  88.691  60.382  0.00  0.00    -0.400 OA
ATOM     20  H   UNL d   1      25.079  88.521  60.445  0.00  0.00     0.209 HD
ENDBRANCH  18  19
ENDBRANCH   6  18
BRANCH  13  21
ATOM     21  O   UNL d   1      22.883  91.965  57.995  0.00  0.00    -0.387 OA
ATOM     22  H   UNL d   1      23.837  91.917  58.174  0.00  0.00     0.210 HD
ENDBRANCH  13  21
BRANCH  10  23
ATOM     23  O   UNL d   1      20.680  86.521  60.319  0.00  0.00    -0.393 OA
ATOM     24  H   UNL d   1      21.171  85.706  60.114  0.00  0.00     0.210 HD
ENDBRANCH  10  23
TORSDOF 4
ENDMDL
MODEL 23
REMARK minimizedAffinity -6.62447643
REMARK minimizedRMSD -1
REMARK  4 active torsions:
REMARK  status: ('A' for Active; 'I' for Inactive)
REMARK    1  A    between atoms: O_3  and  C_13 
REMARK    2  A    between atoms: O_4  and  C_16 
REMARK    3  A    between atoms: O_5  and  C_17 
REMARK    4  A    between atoms: C_9  and  C_17 
ROOT
ATOM      1  O   UNL d   1      24.205  88.287  57.927  0.00  0.00    -0.371 OA
ATOM      2  O   UNL d   1      23.129  91.753  57.605  0.00  0.00    -0.370 OA
ATOM      3  O   UNL d   1      22.816  92.807  62.459  0.00  0.00    -0.290 OA
ATOM      4  C   UNL d   1      22.166  89.389  58.878  0.00  0.00     0.010 C 
ATOM      5  C   UNL d   1      23.538  89.517  58.249  0.00  0.00     0.119 A 
ATOM      6  C   UNL d   1      21.865  90.803  59.573  0.00  0.00     0.054 C 
ATOM      7  C   UNL d   1      23.346  90.434  57.091  0.00  0.00     0.188 C 
ATOM      8  C   UNL d   1      21.285  89.214  57.580  0.00  0.00     0.048 C 
ATOM      9  C   UNL d   1      24.873  89.157  58.852  0.00  0.00     0.210 A 
ATOM     10  C   UNL d   1      22.105  89.826  56.421  0.00  0.00     0.151 C 
ATOM     11  C   UNL d   1      21.996  91.924  58.479  0.00  0.00     0.160 C 
ATOM     12  C   UNL d   1      21.998  88.164  59.781  0.00  0.00     0.020 C 
ATOM     13  C   UNL d   1      22.873  91.141  60.714  0.00  0.00     0.206 C 
ATOM     14  C   UNL d   1      22.109  93.320  59.027  0.00  0.00     0.016 C 
ATOM     15  C   UNL d   1      22.687  92.552  61.262  0.00  0.00     0.184 C 
ATOM     16  C   UNL d   1      22.398  93.647  60.294  0.00  0.00    -0.015 C 
ATOM     17  C   UNL d   1      22.449  95.056  60.792  0.00  0.00     0.052 C 
ENDROOT
BRANCH   6  18
ATOM     18  C   UNL d   1      20.427  90.825  60.164  0.00  0.00     0.180 C 
BRANCH  18  19
ATOM     19  O   UNL d   1      19.585  91.410  59.202  0.00  0.00    -0.400 OA
ATOM     20  H   UNL d   1      18.686  91.422  59.571  0.00  0.00     0.209 HD
ENDBRANCH  18  19
ENDBRANCH   6  18
BRANCH  13  21
ATOM     21  O   UNL d   1      22.742  90.248  61.809  0.00  0.00    -0.387 OA
ATOM     22  H   UNL d   1      21.888  90.408  62.244  0.00  0.00     0.210 HD
ENDBRANCH  13  21
BRANCH  10  23
ATOM     23  O   UNL d   1      21.377  90.770  55.664  0.00  0.00    -0.393 OA
ATOM     24  H   UNL d   1      20.576  90.326  55.336  0.00  0.00     0.210 HD
ENDBRANCH  10  23
TORSDOF 4
ENDMDL
MODEL 24
REMARK minimizedAffinity -6.6125803
REMARK minimizedRMSD -1
REMARK  4 active torsions:
REMARK  status: ('A' for Active; 'I' for Inactive)
REMARK    1  A    between atoms: O_3  and  C_13 
REMARK    2  A    between atoms: O_4  and  C_16 
REMARK    3  A    between atoms: O_5  and  C_17 
REMARK    4  A    between atoms: C_9  and  C_17 
ROOT
ATOM      1  O   UNL d   1      50.321  99.226  41.111  0.00  0.00    -0.371 OA
ATOM      2  O   UNL d   1      52.276  96.700  42.863  0.00  0.00    -0.370 OA
ATOM      3  O   UNL d   1      50.577  92.720  40.404  0.00  0.00    -0.290 OA
ATOM      4  C   UNL d   1      49.517  97.197  42.341  0.00  0.00     0.010 C 
ATOM      5  C   UNL d   1      50.656  97.955  41.690  0.00  0.00     0.119 A 
ATOM      6  C   UNL d   1      50.007  95.675  42.452  0.00  0.00     0.054 C 
ATOM      7  C   UNL d   1      51.722  98.013  42.728  0.00  0.00     0.188 C 
ATOM      8  C   UNL d   1      49.513  97.880  43.765  0.00  0.00     0.048 C 
ATOM      9  C   UNL d   1      50.862  98.238  40.222  0.00  0.00     0.210 A 
ATOM     10  C   UNL d   1      50.927  98.473  43.960  0.00  0.00     0.151 C 
ATOM     11  C   UNL d   1      51.364  95.653  43.245  0.00  0.00     0.160 C 
ATOM     12  C   UNL d   1      48.157  97.403  41.671  0.00  0.00     0.020 C 
ATOM     13  C   UNL d   1      50.266  95.021  41.061  0.00  0.00     0.206 C 
ATOM     14  C   UNL d   1      52.138  94.370  43.122  0.00  0.00     0.016 C 
ATOM     15  C   UNL d   1      50.887  93.632  41.170  0.00  0.00     0.184 C 
ATOM     16  C   UNL d   1      51.935  93.413  42.206  0.00  0.00    -0.015 C 
ATOM     17  C   UNL d   1      52.707  92.133  42.163  0.00  0.00     0.052 C 
ENDROOT
BRANCH   6  18
ATOM     18  C   UNL d   1      48.954  94.816  43.209  0.00  0.00     0.180 C 
BRANCH  18  19
ATOM     19  O   UNL d   1      49.438  94.608  44.513  0.00  0.00    -0.400 OA
ATOM     20  H   UNL d   1      48.779  94.074  44.987  0.00  0.00     0.209 HD
ENDBRANCH  18  19
ENDBRANCH   6  18
BRANCH  13  21
ATOM     21  O   UNL d   1      49.067  94.884  40.315  0.00  0.00    -0.387 OA
ATOM     22  H   UNL d   1      48.505  94.219  40.745  0.00  0.00     0.210 HD
ENDBRANCH  13  21
BRANCH  10  23
ATOM     23  O   UNL d   1      51.531  98.081  45.174  0.00  0.00    -0.393 OA
ATOM     24  H   UNL d   1      50.934  98.345  45.896  0.00  0.00     0.210 HD
ENDBRANCH  10  23
TORSDOF 4
ENDMDL
MODEL 25
REMARK minimizedAffinity -6.56895447
REMARK minimizedRMSD -1
REMARK  4 active torsions:
REMARK  status: ('A' for Active; 'I' for Inactive)
REMARK    1  A    between atoms: O_3  and  C_13 
REMARK    2  A    between atoms: O_4  and  C_16 
REMARK    3  A    between atoms: O_5  and  C_17 
REMARK    4  A    between atoms: C_9  and  C_17 
ROOT
ATOM      1  O   UNL d   1      22.125  74.182  63.811  0.00  0.00    -0.371 OA
ATOM      2  O   UNL d   1      24.214  76.085  66.110  0.00  0.00    -0.370 OA
ATOM      3  O   UNL d   1      20.687  77.219  69.433  0.00  0.00    -0.290 OA
ATOM      4  C   UNL d   1      21.823  76.534  64.620  0.00  0.00     0.010 C 
ATOM      5  C   UNL d   1      22.487  75.181  64.777  0.00  0.00     0.119 A 
ATOM      6  C   UNL d   1      21.988  77.272  66.034  0.00  0.00     0.054 C 
ATOM      7  C   UNL d   1      23.945  75.473  64.844  0.00  0.00     0.188 C 
ATOM      8  C   UNL d   1      22.779  77.183  63.545  0.00  0.00     0.048 C 
ATOM      9  C   UNL d   1      21.847  73.876  65.185  0.00  0.00     0.210 A 
ATOM     10  C   UNL d   1      24.122  76.425  63.652  0.00  0.00     0.151 C 
ATOM     11  C   UNL d   1      23.519  77.315  66.390  0.00  0.00     0.160 C 
ATOM     12  C   UNL d   1      20.396  76.477  64.070  0.00  0.00     0.020 C 
ATOM     13  C   UNL d   1      21.258  76.527  67.193  0.00  0.00     0.206 C 
ATOM     14  C   UNL d   1      23.817  77.636  67.828  0.00  0.00     0.016 C 
ATOM     15  C   UNL d   1      21.550  77.137  68.560  0.00  0.00     0.184 C 
ATOM     16  C   UNL d   1      22.941  77.591  68.842  0.00  0.00    -0.015 C 
ATOM     17  C   UNL d   1      23.284  77.968  70.247  0.00  0.00     0.052 C 
ENDROOT
BRANCH   6  18
ATOM     18  C   UNL d   1      21.435  78.724  65.959  0.00  0.00     0.180 C 
BRANCH  18  19
ATOM     19  O   UNL d   1      22.463  79.540  65.454  0.00  0.00    -0.400 OA
ATOM     20  H   UNL d   1      22.116  80.448  65.405  0.00  0.00     0.209 HD
ENDBRANCH  18  19
ENDBRANCH   6  18
BRANCH  13  21
ATOM     21  O   UNL d   1      19.850  76.544  67.021  0.00  0.00    -0.387 OA
ATOM     22  H   UNL d   1      19.531  77.454  67.138  0.00  0.00     0.210 HD
ENDBRANCH  13  21
BRANCH  10  23
ATOM     23  O   UNL d   1      25.234  77.283  63.801  0.00  0.00    -0.393 OA
ATOM     24  H   UNL d   1      25.233  77.897  63.046  0.00  0.00     0.210 HD
ENDBRANCH  10  23
TORSDOF 4
ENDMDL
MODEL 26
REMARK minimizedAffinity -6.55774879
REMARK minimizedRMSD -1
REMARK  4 active torsions:
REMARK  status: ('A' for Active; 'I' for Inactive)
REMARK    1  A    between atoms: O_3  and  C_13 
REMARK    2  A    between atoms: O_4  and  C_16 
REMARK    3  A    between atoms: O_5  and  C_17 
REMARK    4  A    between atoms: C_9  and  C_17 
ROOT
ATOM      1  O   UNL d   1      74.995  83.505  27.162  0.00  0.00    -0.371 OA
ATOM      2  O   UNL d   1      73.512  83.729  30.482  0.00  0.00    -0.370 OA
ATOM      3  O   UNL d   1      70.379  79.884  30.072  0.00  0.00    -0.290 OA
ATOM      4  C   UNL d   1      72.580  83.738  27.786  0.00  0.00     0.010 C 
ATOM      5  C   UNL d   1      74.002  83.408  28.194  0.00  0.00     0.119 A 
ATOM      6  C   UNL d   1      71.638  83.097  28.915  0.00  0.00     0.054 C 
ATOM      7  C   UNL d   1      74.267  84.259  29.387  0.00  0.00     0.188 C 
ATOM      8  C   UNL d   1      72.615  85.310  27.925  0.00  0.00     0.048 C 
ATOM      9  C   UNL d   1      74.834  82.219  27.778  0.00  0.00     0.210 A 
ATOM     10  C   UNL d   1      73.768  85.629  28.904  0.00  0.00     0.151 C 
ATOM     11  C   UNL d   1      72.083  83.670  30.309  0.00  0.00     0.160 C 
ATOM     12  C   UNL d   1      72.233  83.358  26.345  0.00  0.00     0.020 C 
ATOM     13  C   UNL d   1      71.753  81.544  28.987  0.00  0.00     0.206 C 
ATOM     14  C   UNL d   1      71.559  82.906  31.494  0.00  0.00     0.016 C 
ATOM     15  C   UNL d   1      70.984  80.952  30.163  0.00  0.00     0.184 C 
ATOM     16  C   UNL d   1      71.028  81.676  31.464  0.00  0.00    -0.015 C 
ATOM     17  C   UNL d   1      70.477  80.985  32.670  0.00  0.00     0.052 C 
ENDROOT
BRANCH   6  18
ATOM     18  C   UNL d   1      70.149  83.468  28.657  0.00  0.00     0.180 C 
BRANCH  18  19
ATOM     19  O   UNL d   1      69.839  84.563  29.482  0.00  0.00    -0.400 OA
ATOM     20  H   UNL d   1      68.909  84.795  29.319  0.00  0.00     0.209 HD
ENDBRANCH  18  19
ENDBRANCH   6  18
BRANCH  13  21
ATOM     21  O   UNL d   1      71.255  80.927  27.810  0.00  0.00    -0.387 OA
ATOM     22  H   UNL d   1      70.293  81.053  27.773  0.00  0.00     0.210 HD
ENDBRANCH  13  21
BRANCH  10  23
ATOM     23  O   UNL d   1      73.377  86.472  29.967  0.00  0.00    -0.393 OA
ATOM     24  H   UNL d   1      73.010  87.283  29.577  0.00  0.00     0.210 HD
ENDBRANCH  10  23
TORSDOF 4
ENDMDL
MODEL 27
REMARK minimizedAffinity -6.55306435
REMARK minimizedRMSD -1
REMARK  4 active torsions:
REMARK  status: ('A' for Active; 'I' for Inactive)
REMARK    1  A    between atoms: O_3  and  C_13 
REMARK    2  A    between atoms: O_4  and  C_16 
REMARK    3  A    between atoms: O_5  and  C_17 
REMARK    4  A    between atoms: C_9  and  C_17 
ROOT
ATOM      1  O   UNL d   1      48.326  86.565  87.750  0.00  0.00    -0.371 OA
ATOM      2  O   UNL d   1      50.836  86.286  85.125  0.00  0.00    -0.370 OA
ATOM      3  O   UNL d   1      51.794  91.142  84.601  0.00  0.00    -0.290 OA
ATOM      4  C   UNL d   1      48.350  87.637  85.486  0.00  0.00     0.010 C 
ATOM      5  C   UNL d   1      49.097  86.919  86.592  0.00  0.00     0.119 A 
ATOM      6  C   UNL d   1      49.472  88.339  84.580  0.00  0.00     0.054 C 
ATOM      7  C   UNL d   1      49.764  85.769  85.921  0.00  0.00     0.188 C 
ATOM      8  C   UNL d   1      47.725  86.400  84.731  0.00  0.00     0.048 C 
ATOM      9  C   UNL d   1      49.443  87.438  87.966  0.00  0.00     0.210 A 
ATOM     10  C   UNL d   1      48.610  85.185  85.092  0.00  0.00     0.151 C 
ATOM     11  C   UNL d   1      50.477  87.230  84.098  0.00  0.00     0.160 C 
ATOM     12  C   UNL d   1      47.230  88.558  85.976  0.00  0.00     0.020 C 
ATOM     13  C   UNL d   1      50.295  89.410  85.359  0.00  0.00     0.206 C 
ATOM     14  C   UNL d   1      51.775  87.758  83.554  0.00  0.00     0.016 C 
ATOM     15  C   UNL d   1      51.464  89.957  84.548  0.00  0.00     0.184 C 
ATOM     16  C   UNL d   1      52.248  89.001  83.717  0.00  0.00    -0.015 C 
ATOM     17  C   UNL d   1      53.527  89.484  83.110  0.00  0.00     0.052 C 
ENDROOT
BRANCH   6  18
ATOM     18  C   UNL d   1      48.825  89.022  83.342  0.00  0.00     0.180 C 
BRANCH  18  19
ATOM     19  O   UNL d   1      48.694  88.043  82.341  0.00  0.00    -0.400 OA
ATOM     20  H   UNL d   1      48.287  88.469  81.568  0.00  0.00     0.209 HD
ENDBRANCH  18  19
ENDBRANCH   6  18
BRANCH  13  21
ATOM     21  O   UNL d   1      49.491  90.518  85.732  0.00  0.00    -0.387 OA
ATOM     22  H   UNL d   1      49.238  91.006  84.931  0.00  0.00     0.210 HD
ENDBRANCH  13  21
BRANCH  10  23
ATOM     23  O   UNL d   1      49.060  84.469  83.962  0.00  0.00    -0.393 OA
ATOM     24  H   UNL d   1      48.275  84.198  83.456  0.00  0.00     0.210 HD
ENDBRANCH  10  23
TORSDOF 4
ENDMDL
MODEL 28
REMARK minimizedAffinity -6.5323391
REMARK minimizedRMSD -1
REMARK  4 active torsions:
REMARK  status: ('A' for Active; 'I' for Inactive)
REMARK    1  A    between atoms: O_3  and  C_13 
REMARK    2  A    between atoms: O_4  and  C_16 
REMARK    3  A    between atoms: O_5  and  C_17 
REMARK    4  A    between atoms: C_9  and  C_17 
ROOT
ATOM      1  O   UNL d   1      48.001  89.344  84.952  0.00  0.00    -0.371 OA
ATOM      2  O   UNL d   1      50.844  89.752  82.711  0.00  0.00    -0.370 OA
ATOM      3  O   UNL d   1      51.176  85.025  81.189  0.00  0.00    -0.290 OA
ATOM      4  C   UNL d   1      50.195  88.135  84.969  0.00  0.00     0.010 C 
ATOM      5  C   UNL d   1      49.200  89.011  84.235  0.00  0.00     0.119 A 
ATOM      6  C   UNL d   1      51.154  87.517  83.842  0.00  0.00     0.054 C 
ATOM      7  C   UNL d   1      49.989  90.186  83.774  0.00  0.00     0.188 C 
ATOM      8  C   UNL d   1      50.963  89.234  85.803  0.00  0.00     0.048 C 
ATOM      9  C   UNL d   1      47.834  88.630  83.719  0.00  0.00     0.210 A 
ATOM     10  C   UNL d   1      50.747  90.569  85.054  0.00  0.00     0.151 C 
ATOM     11  C   UNL d   1      51.782  88.705  83.027  0.00  0.00     0.160 C 
ATOM     12  C   UNL d   1      49.561  87.119  85.922  0.00  0.00     0.020 C 
ATOM     13  C   UNL d   1      50.390  86.608  82.832  0.00  0.00     0.206 C 
ATOM     14  C   UNL d   1      52.405  88.304  81.718  0.00  0.00     0.016 C 
ATOM     15  C   UNL d   1      51.267  86.154  81.670  0.00  0.00     0.184 C 
ATOM     16  C   UNL d   1      52.214  87.141  81.080  0.00  0.00    -0.015 C 
ATOM     17  C   UNL d   1      52.900  86.778  79.802  0.00  0.00     0.052 C 
ENDROOT
BRANCH   6  18
ATOM     18  C   UNL d   1      52.292  86.680  84.493  0.00  0.00     0.180 C 
BRANCH  18  19
ATOM     19  O   UNL d   1      52.075  85.335  84.147  0.00  0.00    -0.400 OA
ATOM     20  H   UNL d   1      52.788  84.811  84.552  0.00  0.00     0.209 HD
ENDBRANCH  18  19
ENDBRANCH   6  18
BRANCH  13  21
ATOM     21  O   UNL d   1      49.888  85.438  83.457  0.00  0.00    -0.387 OA
ATOM     22  H   UNL d   1      50.636  84.870  83.708  0.00  0.00     0.210 HD
ENDBRANCH  13  21
BRANCH  10  23
ATOM     23  O   UNL d   1      51.951  91.258  84.788  0.00  0.00    -0.393 OA
ATOM     24  H   UNL d   1      52.401  91.398  85.639  0.00  0.00     0.210 HD
ENDBRANCH  10  23
TORSDOF 4
ENDMDL
MODEL 29
REMARK minimizedAffinity -6.45689726
REMARK minimizedRMSD -1
REMARK  4 active torsions:
REMARK  status: ('A' for Active; 'I' for Inactive)
REMARK    1  A    between atoms: O_3  and  C_13 
REMARK    2  A    between atoms: O_4  and  C_16 
REMARK    3  A    between atoms: O_5  and  C_17 
REMARK    4  A    between atoms: C_9  and  C_17 
ROOT
ATOM      1  O   UNL d   1      73.556  85.604  28.231  0.00  0.00    -0.371 OA
ATOM      2  O   UNL d   1      71.046  84.313  30.535  0.00  0.00    -0.370 OA
ATOM      3  O   UNL d   1      73.678  80.477  32.305  0.00  0.00    -0.290 OA
ATOM      4  C   UNL d   1      72.568  83.305  28.343  0.00  0.00     0.010 C 
ATOM      5  C   UNL d   1      72.810  84.648  29.000  0.00  0.00     0.119 A 
ATOM      6  C   UNL d   1      72.183  82.296  29.529  0.00  0.00     0.054 C 
ATOM      7  C   UNL d   1      71.462  85.117  29.425  0.00  0.00     0.188 C 
ATOM      8  C   UNL d   1      71.294  83.650  27.478  0.00  0.00     0.048 C 
ATOM      9  C   UNL d   1      74.118  85.217  29.494  0.00  0.00     0.210 A 
ATOM     10  C   UNL d   1      70.638  84.878  28.151  0.00  0.00     0.151 C 
ATOM     11  C   UNL d   1      70.951  82.894  30.301  0.00  0.00     0.160 C 
ATOM     12  C   UNL d   1      73.700  82.838  27.425  0.00  0.00     0.020 C 
ATOM     13  C   UNL d   1      73.337  82.109  30.561  0.00  0.00     0.206 C 
ATOM     14  C   UNL d   1      70.697  82.274  31.647  0.00  0.00     0.016 C 
ATOM     15  C   UNL d   1      72.916  81.282  31.771  0.00  0.00     0.184 C 
ATOM     16  C   UNL d   1      71.557  81.513  32.337  0.00  0.00    -0.015 C 
ATOM     17  C   UNL d   1      71.230  80.882  33.653  0.00  0.00     0.052 C 
ENDROOT
BRANCH   6  18
ATOM     18  C   UNL d   1      71.805  80.900  28.957  0.00  0.00     0.180 C 
BRANCH  18  19
ATOM     19  O   UNL d   1      70.413  80.889  28.762  0.00  0.00    -0.400 OA
ATOM     20  H   UNL d   1      70.176  80.016  28.403  0.00  0.00     0.209 HD
ENDBRANCH  18  19
ENDBRANCH   6  18
BRANCH  13  21
ATOM     21  O   UNL d   1      74.457  81.459  29.981  0.00  0.00    -0.387 OA
ATOM     22  H   UNL d   1      74.217  80.538  29.783  0.00  0.00     0.210 HD
ENDBRANCH  13  21
BRANCH  10  23
ATOM     23  O   UNL d   1      69.263  84.697  28.418  0.00  0.00    -0.393 OA
ATOM     24  H   UNL d   1      68.828  84.481  27.575  0.00  0.00     0.210 HD
ENDBRANCH  10  23
TORSDOF 4
ENDMDL
MODEL 30
REMARK minimizedAffinity -6.40692043
REMARK minimizedRMSD -1
REMARK  4 active torsions:
REMARK  status: ('A' for Active; 'I' for Inactive)
REMARK    1  A    between atoms: O_3  and  C_13 
REMARK    2  A    between atoms: O_4  and  C_16 
REMARK    3  A    between atoms: O_5  and  C_17 
REMARK    4  A    between atoms: C_9  and  C_17 
ROOT
ATOM      1  O   UNL d   1      71.750  86.207  66.171  0.00  0.00    -0.371 OA
ATOM      2  O   UNL d   1      68.218  86.935  65.658  0.00  0.00    -0.370 OA
ATOM      3  O   UNL d   1      68.608  91.881  65.261  0.00  0.00    -0.290 OA
ATOM      4  C   UNL d   1      70.257  87.728  67.487  0.00  0.00     0.010 C 
ATOM      5  C   UNL d   1      70.511  86.929  66.225  0.00  0.00     0.119 A 
ATOM      6  C   UNL d   1      69.115  88.791  67.115  0.00  0.00     0.054 C 
ATOM      7  C   UNL d   1      69.297  86.083  66.056  0.00  0.00     0.188 C 
ATOM      8  C   UNL d   1      69.673  86.594  68.417  0.00  0.00     0.048 C 
ATOM      9  C   UNL d   1      71.537  87.193  65.151  0.00  0.00     0.210 A 
ATOM     10  C   UNL d   1      69.130  85.500  67.468  0.00  0.00     0.151 C 
ATOM     11  C   UNL d   1      67.872  88.001  66.563  0.00  0.00     0.160 C 
ATOM     12  C   UNL d   1      71.518  88.316  68.126  0.00  0.00     0.020 C 
ATOM     13  C   UNL d   1      69.562  89.795  66.009  0.00  0.00     0.206 C 
ATOM     14  C   UNL d   1      66.868  88.850  65.833  0.00  0.00     0.016 C 
ATOM     15  C   UNL d   1      68.425  90.697  65.541  0.00  0.00     0.184 C 
ATOM     16  C   UNL d   1      67.074  90.092  65.374  0.00  0.00    -0.015 C 
ATOM     17  C   UNL d   1      66.019  90.907  64.696  0.00  0.00     0.052 C 
ENDROOT
BRANCH   6  18
ATOM     18  C   UNL d   1      68.693  89.602  68.374  0.00  0.00     0.180 C 
BRANCH  18  19
ATOM     19  O   UNL d   1      69.819  90.324  68.806  0.00  0.00    -0.400 OA
ATOM     20  H   UNL d   1      69.555  90.833  69.591  0.00  0.00     0.209 HD
ENDBRANCH  18  19
ENDBRANCH   6  18
BRANCH  13  21
ATOM     21  O   UNL d   1      70.606  90.641  66.462  0.00  0.00    -0.387 OA
ATOM     22  H   UNL d   1      70.253  91.239  67.142  0.00  0.00     0.210 HD
ENDBRANCH  13  21
BRANCH  10  23
ATOM     23  O   UNL d   1      67.796  85.133  67.750  0.00  0.00    -0.393 OA
ATOM     24  H   UNL d   1      67.763  84.844  68.679  0.00  0.00     0.210 HD
ENDBRANCH  10  23
TORSDOF 4
ENDMDL
MODEL 31
REMARK minimizedAffinity -6.33585787
REMARK minimizedRMSD -1
REMARK  4 active torsions:
REMARK  status: ('A' for Active; 'I' for Inactive)
REMARK    1  A    between atoms: O_3  and  C_13 
REMARK    2  A    between atoms: O_4  and  C_16 
REMARK    3  A    between atoms: O_5  and  C_17 
REMARK    4  A    between atoms: C_9  and  C_17 
ROOT
ATOM      1  O   UNL d   1      53.389  58.955  56.672  0.00  0.00    -0.371 OA
ATOM      2  O   UNL d   1      52.007  61.748  54.785  0.00  0.00    -0.370 OA
ATOM      3  O   UNL d   1      50.698  59.214  50.707  0.00  0.00    -0.290 OA
ATOM      4  C   UNL d   1      54.023  59.770  54.389  0.00  0.00     0.010 C 
ATOM      5  C   UNL d   1      53.033  59.758  55.536  0.00  0.00     0.119 A 
ATOM      6  C   UNL d   1      53.210  60.293  53.110  0.00  0.00     0.054 C 
ATOM      7  C   UNL d   1      52.789  61.193  55.848  0.00  0.00     0.188 C 
ATOM      8  C   UNL d   1      55.020  60.881  54.901  0.00  0.00     0.048 C 
ATOM      9  C   UNL d   1      52.167  58.613  56.003  0.00  0.00     0.210 A 
ATOM     10  C   UNL d   1      54.222  61.743  55.907  0.00  0.00     0.151 C 
ATOM     11  C   UNL d   1      52.582  61.690  53.466  0.00  0.00     0.160 C 
ATOM     12  C   UNL d   1      54.778  58.453  54.194  0.00  0.00     0.020 C 
ATOM     13  C   UNL d   1      52.041  59.343  52.708  0.00  0.00     0.206 C 
ATOM     14  C   UNL d   1      51.500  62.145  52.526  0.00  0.00     0.016 C 
ATOM     15  C   UNL d   1      51.170  59.921  51.597  0.00  0.00     0.184 C 
ATOM     16  C   UNL d   1      50.849  61.375  51.644  0.00  0.00    -0.015 C 
ATOM     17  C   UNL d   1      49.813  61.895  50.699  0.00  0.00     0.052 C 
ENDROOT
BRANCH   6  18
ATOM     18  C   UNL d   1      54.158  60.450  51.887  0.00  0.00     0.180 C 
BRANCH  18  19
ATOM     19  O   UNL d   1      54.574  61.793  51.847  0.00  0.00    -0.400 OA
ATOM     20  H   UNL d   1      55.169  61.890  51.084  0.00  0.00     0.209 HD
ENDBRANCH  18  19
ENDBRANCH   6  18
BRANCH  13  21
ATOM     21  O   UNL d   1      52.520  58.088  52.251  0.00  0.00    -0.387 OA
ATOM     22  H   UNL d   1      52.974  58.216  51.401  0.00  0.00     0.210 HD
ENDBRANCH  13  21
BRANCH  10  23
ATOM     23  O   UNL d   1      54.287  63.125  55.628  0.00  0.00    -0.393 OA
ATOM     24  H   UNL d   1      55.227  63.377  55.614  0.00  0.00     0.210 HD
ENDBRANCH  10  23
TORSDOF 4
ENDMDL
MODEL 32
REMARK minimizedAffinity -6.3075695
REMARK minimizedRMSD -1
REMARK  4 active torsions:
REMARK  status: ('A' for Active; 'I' for Inactive)
REMARK    1  A    between atoms: O_3  and  C_13 
REMARK    2  A    between atoms: O_4  and  C_16 
REMARK    3  A    between atoms: O_5  and  C_17 
REMARK    4  A    between atoms: C_9  and  C_17 
ROOT
ATOM      1  O   UNL d   1      48.595  90.304  87.331  0.00  0.00    -0.371 OA
ATOM      2  O   UNL d   1      49.226  89.947  83.761  0.00  0.00    -0.370 OA
ATOM      3  O   UNL d   1      53.774  87.951  84.086  0.00  0.00    -0.290 OA
ATOM      4  C   UNL d   1      50.499  91.209  85.979  0.00  0.00     0.010 C 
ATOM      5  C   UNL d   1      49.333  90.250  86.101  0.00  0.00     0.119 A 
ATOM      6  C   UNL d   1      51.421  90.635  84.799  0.00  0.00     0.054 C 
ATOM      7  C   UNL d   1      48.513  90.485  84.880  0.00  0.00     0.188 C 
ATOM      8  C   UNL d   1      49.737  92.507  85.501  0.00  0.00     0.048 C 
ATOM      9  C   UNL d   1      49.210  89.049  87.006  0.00  0.00     0.210 A 
ATOM     10  C   UNL d   1      48.415  92.018  84.865  0.00  0.00     0.151 C 
ATOM     11  C   UNL d   1      50.534  90.494  83.508  0.00  0.00     0.160 C 
ATOM     12  C   UNL d   1      51.222  91.496  87.297  0.00  0.00     0.020 C 
ATOM     13  C   UNL d   1      52.007  89.227  85.122  0.00  0.00     0.206 C 
ATOM     14  C   UNL d   1      51.136  89.637  82.429  0.00  0.00     0.016 C 
ATOM     15  C   UNL d   1      52.747  88.613  83.938  0.00  0.00     0.184 C 
ATOM     16  C   UNL d   1      52.160  88.786  82.580  0.00  0.00    -0.015 C 
ATOM     17  C   UNL d   1      52.748  87.994  81.456  0.00  0.00     0.052 C 
ENDROOT
BRANCH   6  18
ATOM     18  C   UNL d   1      52.603  91.604  84.509  0.00  0.00     0.180 C 
BRANCH  18  19
ATOM     19  O   UNL d   1      52.217  92.430  83.438  0.00  0.00    -0.400 OA
ATOM     20  H   UNL d   1      52.954  93.037  83.259  0.00  0.00     0.209 HD
ENDBRANCH  18  19
ENDBRANCH   6  18
BRANCH  13  21
ATOM     21  O   UNL d   1      52.923  89.277  86.205  0.00  0.00    -0.387 OA
ATOM     22  H   UNL d   1      53.716  89.762  85.923  0.00  0.00     0.210 HD
ENDBRANCH  13  21
BRANCH  10  23
ATOM     23  O   UNL d   1      48.197  92.537  83.570  0.00  0.00    -0.393 OA
ATOM     24  H   UNL d   1      48.220  93.507  83.637  0.00  0.00     0.210 HD
ENDBRANCH  10  23
TORSDOF 4
ENDMDL
MODEL 33
REMARK minimizedAffinity -6.27439594
REMARK minimizedRMSD -1
REMARK  4 active torsions:
REMARK  status: ('A' for Active; 'I' for Inactive)
REMARK    1  A    between atoms: O_3  and  C_13 
REMARK    2  A    between atoms: O_4  and  C_16 
REMARK    3  A    between atoms: O_5  and  C_17 
REMARK    4  A    between atoms: C_9  and  C_17 
ROOT
ATOM      1  O   UNL d   1      19.754  89.755  59.435  0.00  0.00    -0.371 OA
ATOM      2  O   UNL d   1      22.318  90.340  61.956  0.00  0.00    -0.370 OA
ATOM      3  O   UNL d   1      19.983  93.956  64.454  0.00  0.00    -0.290 OA
ATOM      4  C   UNL d   1      20.929  91.892  60.008  0.00  0.00     0.010 C 
ATOM      5  C   UNL d   1      20.562  90.471  60.382  0.00  0.00     0.119 A 
ATOM      6  C   UNL d   1      21.374  92.607  61.373  0.00  0.00     0.054 C 
ATOM      7  C   UNL d   1      21.858  89.813  60.707  0.00  0.00     0.188 C 
ATOM      8  C   UNL d   1      22.187  91.619  59.094  0.00  0.00     0.048 C 
ATOM      9  C   UNL d   1      19.202  89.929  60.747  0.00  0.00     0.210 A 
ATOM     10  C   UNL d   1      22.724  90.230  59.508  0.00  0.00     0.151 C 
ATOM     11  C   UNL d   1      22.536  91.763  62.012  0.00  0.00     0.160 C 
ATOM     12  C   UNL d   1      19.858  92.629  59.199  0.00  0.00     0.020 C 
ATOM     13  C   UNL d   1      20.219  92.682  62.418  0.00  0.00     0.206 C 
ATOM     14  C   UNL d   1      22.815  92.078  63.456  0.00  0.00     0.016 C 
ATOM     15  C   UNL d   1      20.685  93.211  63.771  0.00  0.00     0.184 C 
ATOM     16  C   UNL d   1      22.008  92.757  64.283  0.00  0.00    -0.015 C 
ATOM     17  C   UNL d   1      22.362  93.082  65.699  0.00  0.00     0.052 C 
ENDROOT
BRANCH   6  18
ATOM     18  C   UNL d   1      21.879  94.051  61.094  0.00  0.00     0.180 C 
BRANCH  18  19
ATOM     19  O   UNL d   1      23.265  93.977  60.873  0.00  0.00    -0.400 OA
ATOM     20  H   UNL d   1      23.580  94.880  60.696  0.00  0.00     0.209 HD
ENDBRANCH  18  19
ENDBRANCH   6  18
BRANCH  13  21
ATOM     21  O   UNL d   1      19.169  93.529  61.979  0.00  0.00    -0.387 OA
ATOM     22  H   UNL d   1      19.489  94.447  61.969  0.00  0.00     0.210 HD
ENDBRANCH  13  21
BRANCH  10  23
ATOM     23  O   UNL d   1      24.104  90.235  59.809  0.00  0.00    -0.393 OA
ATOM     24  H   UNL d   1      24.572  90.577  59.028  0.00  0.00     0.210 HD
ENDBRANCH  10  23
TORSDOF 4
ENDMDL
MODEL 34
REMARK minimizedAffinity -6.18226004
REMARK minimizedRMSD -1
REMARK  4 active torsions:
REMARK  status: ('A' for Active; 'I' for Inactive)
REMARK    1  A    between atoms: O_3  and  C_13 
REMARK    2  A    between atoms: O_4  and  C_16 
REMARK    3  A    between atoms: O_5  and  C_17 
REMARK    4  A    between atoms: C_9  and  C_17 
ROOT
ATOM      1  O   UNL d   1      47.291  74.741  27.602  0.00  0.00    -0.371 OA
ATOM      2  O   UNL d   1      44.452  76.972  28.084  0.00  0.00    -0.370 OA
ATOM      3  O   UNL d   1      42.792  76.960  23.392  0.00  0.00    -0.290 OA
ATOM      4  C   UNL d   1      46.764  76.883  26.416  0.00  0.00     0.010 C 
ATOM      5  C   UNL d   1      46.305  75.738  27.296  0.00  0.00     0.119 A 
ATOM      6  C   UNL d   1      45.429  77.552  25.831  0.00  0.00     0.054 C 
ATOM      7  C   UNL d   1      45.696  76.389  28.488  0.00  0.00     0.188 C 
ATOM      8  C   UNL d   1      47.417  77.820  27.506  0.00  0.00     0.048 C 
ATOM      9  C   UNL d   1      46.117  74.291  26.911  0.00  0.00     0.210 A 
ATOM     10  C   UNL d   1      46.769  77.426  28.853  0.00  0.00     0.151 C 
ATOM     11  C   UNL d   1      44.515  77.964  27.041  0.00  0.00     0.160 C 
ATOM     12  C   UNL d   1      47.817  76.497  25.375  0.00  0.00     0.020 C 
ATOM     13  C   UNL d   1      44.608  76.575  24.934  0.00  0.00     0.206 C 
ATOM     14  C   UNL d   1      43.088  78.262  26.673  0.00  0.00     0.016 C 
ATOM     15  C   UNL d   1      43.262  77.156  24.513  0.00  0.00     0.184 C 
ATOM     16  C   UNL d   1      42.487  77.932  25.521  0.00  0.00    -0.015 C 
ATOM     17  C   UNL d   1      41.076  78.299  25.191  0.00  0.00     0.052 C 
ENDROOT
BRANCH   6  18
ATOM     18  C   UNL d   1      45.774  78.816  24.992  0.00  0.00     0.180 C 
BRANCH  18  19
ATOM     19  O   UNL d   1      46.143  79.830  25.893  0.00  0.00    -0.400 OA
ATOM     20  H   UNL d   1      46.362  80.620  25.368  0.00  0.00     0.209 HD
ENDBRANCH  18  19
ENDBRANCH   6  18
BRANCH  13  21
ATOM     21  O   UNL d   1      45.308  76.242  23.746  0.00  0.00    -0.387 OA
ATOM     22  H   UNL d   1      45.363  77.031  23.182  0.00  0.00     0.210 HD
ENDBRANCH  13  21
BRANCH  10  23
ATOM     23  O   UNL d   1      46.242  78.529  29.560  0.00  0.00    -0.393 OA
ATOM     24  H   UNL d   1      46.965  79.167  29.688  0.00  0.00     0.210 HD
ENDBRANCH  10  23
TORSDOF 4
ENDMDL
MODEL 35
REMARK minimizedAffinity -6.17304277
REMARK minimizedRMSD -1
REMARK  4 active torsions:
REMARK  status: ('A' for Active; 'I' for Inactive)
REMARK    1  A    between atoms: O_3  and  C_13 
REMARK    2  A    between atoms: O_4  and  C_16 
REMARK    3  A    between atoms: O_5  and  C_17 
REMARK    4  A    between atoms: C_9  and  C_17 
ROOT
ATOM      1  O   UNL d   1      23.012  92.456  59.906  0.00  0.00    -0.371 OA
ATOM      2  O   UNL d   1      20.104  92.613  62.094  0.00  0.00    -0.370 OA
ATOM      3  O   UNL d   1      18.552  97.165  60.812  0.00  0.00    -0.290 OA
ATOM      4  C   UNL d   1      22.455  94.166  61.649  0.00  0.00     0.010 C 
ATOM      5  C   UNL d   1      22.007  93.026  60.757  0.00  0.00     0.119 A 
ATOM      6  C   UNL d   1      21.116  94.925  62.100  0.00  0.00     0.054 C 
ATOM      7  C   UNL d   1      21.353  92.053  61.676  0.00  0.00     0.188 C 
ATOM      8  C   UNL d   1      23.058  93.348  62.857  0.00  0.00     0.048 C 
ATOM      9  C   UNL d   1      21.867  93.024  59.255  0.00  0.00     0.210 A 
ATOM     10  C   UNL d   1      22.390  91.954  62.806  0.00  0.00     0.151 C 
ATOM     11  C   UNL d   1      20.164  93.877  62.783  0.00  0.00     0.160 C 
ATOM     12  C   UNL d   1      23.541  95.055  61.039  0.00  0.00     0.020 C 
ATOM     13  C   UNL d   1      20.342  95.549  60.899  0.00  0.00     0.206 C 
ATOM     14  C   UNL d   1      18.738  94.332  62.929  0.00  0.00     0.016 C 
ATOM     15  C   UNL d   1      18.991  96.127  61.307  0.00  0.00     0.184 C 
ATOM     16  C   UNL d   1      18.173  95.367  62.293  0.00  0.00    -0.015 C 
ATOM     17  C   UNL d   1      16.760  95.803  62.517  0.00  0.00     0.052 C 
ENDROOT
BRANCH   6  18
ATOM     18  C   UNL d   1      21.446  96.058  63.113  0.00  0.00     0.180 C 
BRANCH  18  19
ATOM     19  O   UNL d   1      21.536  95.471  64.387  0.00  0.00    -0.400 OA
ATOM     20  H   UNL d   1      21.745  96.179  65.020  0.00  0.00     0.209 HD
ENDBRANCH  18  19
ENDBRANCH   6  18
BRANCH  13  21
ATOM     21  O   UNL d   1      21.078  96.599  60.290  0.00  0.00    -0.387 OA
ATOM     22  H   UNL d   1      21.124  97.348  60.907  0.00  0.00     0.210 HD
ENDBRANCH  13  21
BRANCH  10  23
ATOM     23  O   UNL d   1      21.817  91.567  64.037  0.00  0.00    -0.393 OA
ATOM     24  H   UNL d   1      22.520  91.598  64.709  0.00  0.00     0.210 HD
ENDBRANCH  10  23
TORSDOF 4
ENDMDL
MODEL 36
REMARK minimizedAffinity -6.17215014
REMARK minimizedRMSD -1
REMARK  4 active torsions:
REMARK  status: ('A' for Active; 'I' for Inactive)
REMARK    1  A    between atoms: O_3  and  C_13 
REMARK    2  A    between atoms: O_4  and  C_16 
REMARK    3  A    between atoms: O_5  and  C_17 
REMARK    4  A    between atoms: C_9  and  C_17 
ROOT
ATOM      1  O   UNL d   1      19.849  76.710  63.411  0.00  0.00    -0.371 OA
ATOM      2  O   UNL d   1      21.162  75.528  66.597  0.00  0.00    -0.370 OA
ATOM      3  O   UNL d   1      23.349  79.764  68.029  0.00  0.00    -0.290 OA
ATOM      4  C   UNL d   1      22.215  76.726  64.232  0.00  0.00     0.010 C 
ATOM      5  C   UNL d   1      20.736  76.596  64.534  0.00  0.00     0.119 A 
ATOM      6  C   UNL d   1      22.924  77.056  65.633  0.00  0.00     0.054 C 
ATOM      7  C   UNL d   1      20.609  75.321  65.293  0.00  0.00     0.188 C 
ATOM      8  C   UNL d   1      22.535  75.244  63.790  0.00  0.00     0.048 C 
ATOM      9  C   UNL d   1      19.678  77.670  64.464  0.00  0.00     0.210 A 
ATOM     10  C   UNL d   1      21.434  74.362  64.422  0.00  0.00     0.151 C 
ATOM     11  C   UNL d   1      22.547  75.922  66.653  0.00  0.00     0.160 C 
ATOM     12  C   UNL d   1      22.544  77.685  63.086  0.00  0.00     0.020 C 
ATOM     13  C   UNL d   1      22.452  78.412  66.242  0.00  0.00     0.206 C 
ATOM     14  C   UNL d   1      22.818  76.262  68.093  0.00  0.00     0.016 C 
ATOM     15  C   UNL d   1      23.000  78.647  67.646  0.00  0.00     0.184 C 
ATOM     16  C   UNL d   1      23.053  77.488  68.580  0.00  0.00    -0.015 C 
ATOM     17  C   UNL d   1      23.365  77.759  70.017  0.00  0.00     0.052 C 
ENDROOT
BRANCH   6  18
ATOM     18  C   UNL d   1      24.470  77.106  65.464  0.00  0.00     0.180 C 
BRANCH  18  19
ATOM     19  O   UNL d   1      24.944  75.785  65.547  0.00  0.00    -0.400 OA
ATOM     20  H   UNL d   1      25.910  75.815  65.439  0.00  0.00     0.209 HD
ENDBRANCH  18  19
ENDBRANCH   6  18
BRANCH  13  21
ATOM     21  O   UNL d   1      22.858  79.514  65.446  0.00  0.00    -0.387 OA
ATOM     22  H   UNL d   1      23.825  79.599  65.497  0.00  0.00     0.210 HD
ENDBRANCH  13  21
BRANCH  10  23
ATOM     23  O   UNL d   1      21.950  73.269  65.153  0.00  0.00    -0.393 OA
ATOM     24  H   UNL d   1      22.514  72.755  64.551  0.00  0.00     0.210 HD
ENDBRANCH  10  23
TORSDOF 4
ENDMDL
MODEL 37
REMARK minimizedAffinity -6.16498041
REMARK minimizedRMSD -1
REMARK  4 active torsions:
REMARK  status: ('A' for Active; 'I' for Inactive)
REMARK    1  A    between atoms: O_3  and  C_13 
REMARK    2  A    between atoms: O_4  and  C_16 
REMARK    3  A    between atoms: O_5  and  C_17 
REMARK    4  A    between atoms: C_9  and  C_17 
ROOT
ATOM      1  O   UNL d   1      68.109  84.703  26.115  0.00  0.00    -0.371 OA
ATOM      2  O   UNL d   1      69.688  81.660  27.346  0.00  0.00    -0.370 OA
ATOM      3  O   UNL d   1      71.935  83.638  31.322  0.00  0.00    -0.290 OA
ATOM      4  C   UNL d   1      70.534  84.272  26.573  0.00  0.00     0.010 C 
ATOM      5  C   UNL d   1      69.085  83.864  26.751  0.00  0.00     0.119 A 
ATOM      6  C   UNL d   1      71.349  83.521  27.732  0.00  0.00     0.054 C 
ATOM      7  C   UNL d   1      69.034  82.435  26.336  0.00  0.00     0.188 C 
ATOM      8  C   UNL d   1      70.833  83.610  25.171  0.00  0.00     0.048 C 
ATOM      9  C   UNL d   1      68.013  84.574  27.540  0.00  0.00     0.210 A 
ATOM     10  C   UNL d   1      69.796  82.475  25.003  0.00  0.00     0.151 C 
ATOM     11  C   UNL d   1      71.068  81.979  27.609  0.00  0.00     0.160 C 
ATOM     12  C   UNL d   1      70.758  85.783  26.484  0.00  0.00     0.020 C 
ATOM     13  C   UNL d   1      70.912  83.965  29.161  0.00  0.00     0.206 C 
ATOM     14  C   UNL d   1      71.450  81.176  28.822  0.00  0.00     0.016 C 
ATOM     15  C   UNL d   1      71.569  83.135  30.260  0.00  0.00     0.184 C 
ATOM     16  C   UNL d   1      71.710  81.669  30.041  0.00  0.00    -0.015 C 
ATOM     17  C   UNL d   1      72.134  80.824  31.200  0.00  0.00     0.052 C 
ENDROOT
BRANCH   6  18
ATOM     18  C   UNL d   1      72.875  83.780  27.581  0.00  0.00     0.180 C 
BRANCH  18  19
ATOM     19  O   UNL d   1      73.413  82.711  26.844  0.00  0.00    -0.400 OA
ATOM     20  H   UNL d   1      74.367  82.874  26.749  0.00  0.00     0.209 HD
ENDBRANCH  18  19
ENDBRANCH   6  18
BRANCH  13  21
ATOM     21  O   UNL d   1      71.240  85.322  29.411  0.00  0.00    -0.387 OA
ATOM     22  H   UNL d   1      72.207  85.407  29.463  0.00  0.00     0.210 HD
ENDBRANCH  13  21
BRANCH  10  23
ATOM     23  O   UNL d   1      70.382  81.233  24.674  0.00  0.00    -0.393 OA
ATOM     24  H   UNL d   1      70.901  81.361  23.861  0.00  0.00     0.210 HD
ENDBRANCH  10  23
TORSDOF 4
ENDMDL
MODEL 38
REMARK minimizedAffinity -6.11562586
REMARK minimizedRMSD -1
REMARK  4 active torsions:
REMARK  status: ('A' for Active; 'I' for Inactive)
REMARK    1  A    between atoms: O_3  and  C_13 
REMARK    2  A    between atoms: O_4  and  C_16 
REMARK    3  A    between atoms: O_5  and  C_17 
REMARK    4  A    between atoms: C_9  and  C_17 
ROOT
ATOM      1  O   UNL d   1      20.864  95.068  59.604  0.00  0.00    -0.371 OA
ATOM      2  O   UNL d   1      19.915  91.757  60.789  0.00  0.00    -0.370 OA
ATOM      3  O   UNL d   1      19.194  92.942  65.569  0.00  0.00    -0.290 OA
ATOM      4  C   UNL d   1      21.892  93.707  61.439  0.00  0.00     0.010 C 
ATOM      5  C   UNL d   1      20.728  93.955  60.501  0.00  0.00     0.119 A 
ATOM      6  C   UNL d   1      21.319  92.783  62.618  0.00  0.00     0.054 C 
ATOM      7  C   UNL d   1      20.491  92.648  59.828  0.00  0.00     0.188 C 
ATOM      8  C   UNL d   1      22.834  92.868  60.490  0.00  0.00     0.048 C 
ATOM      9  C   UNL d   1      19.756  95.109  60.514  0.00  0.00     0.210 A 
ATOM     10  C   UNL d   1      21.916  92.257  59.406  0.00  0.00     0.151 C 
ATOM     11  C   UNL d   1      20.695  91.494  61.971  0.00  0.00     0.160 C 
ATOM     12  C   UNL d   1      22.619  94.975  61.892  0.00  0.00     0.020 C 
ATOM     13  C   UNL d   1      20.197  93.485  63.443  0.00  0.00     0.206 C 
ATOM     14  C   UNL d   1      19.798  90.708  62.888  0.00  0.00     0.016 C 
ATOM     15  C   UNL d   1      19.541  92.551  64.455  0.00  0.00     0.184 C 
ATOM     16  C   UNL d   1      19.272  91.146  64.039  0.00  0.00    -0.015 C 
ATOM     17  C   UNL d   1      18.424  90.300  64.935  0.00  0.00     0.052 C 
ENDROOT
BRANCH   6  18
ATOM     18  C   UNL d   1      22.460  92.372  63.592  0.00  0.00     0.180 C 
BRANCH  18  19
ATOM     19  O   UNL d   1      22.825  91.051  63.277  0.00  0.00    -0.400 OA
ATOM     20  H   UNL d   1      23.540  90.795  63.885  0.00  0.00     0.209 HD
ENDBRANCH  18  19
ENDBRANCH   6  18
BRANCH  13  21
ATOM     21  O   UNL d   1      20.697  94.599  64.166  0.00  0.00    -0.387 OA
ATOM     22  H   UNL d   1      21.287  94.278  64.867  0.00  0.00     0.210 HD
ENDBRANCH  13  21
BRANCH  10  23
ATOM     23  O   UNL d   1      22.077  90.861  59.264  0.00  0.00    -0.393 OA
ATOM     24  H   UNL d   1      23.015  90.694  59.068  0.00  0.00     0.210 HD
ENDBRANCH  10  23
TORSDOF 4
ENDMDL
MODEL 39
REMARK minimizedAffinity -6.07849503
REMARK minimizedRMSD -1
REMARK  4 active torsions:
REMARK  status: ('A' for Active; 'I' for Inactive)
REMARK    1  A    between atoms: O_3  and  C_13 
REMARK    2  A    between atoms: O_4  and  C_16 
REMARK    3  A    between atoms: O_5  and  C_17 
REMARK    4  A    between atoms: C_9  and  C_17 
ROOT
ATOM      1  O   UNL d   1      21.771  94.339  62.717  0.00  0.00    -0.371 OA
ATOM      2  O   UNL d   1      22.815  90.895  62.152  0.00  0.00    -0.370 OA
ATOM      3  O   UNL d   1      23.355  91.165  57.212  0.00  0.00    -0.290 OA
ATOM      4  C   UNL d   1      20.746  92.618  61.212  0.00  0.00     0.010 C 
ATOM      5  C   UNL d   1      21.925  93.080  62.045  0.00  0.00     0.119 A 
ATOM      6  C   UNL d   1      21.321  91.505  60.212  0.00  0.00     0.054 C 
ATOM      7  C   UNL d   1      22.231  91.935  62.945  0.00  0.00     0.188 C 
ATOM      8  C   UNL d   1      19.864  91.946  62.336  0.00  0.00     0.048 C 
ATOM      9  C   UNL d   1      22.851  94.241  61.778  0.00  0.00     0.210 A 
ATOM     10  C   UNL d   1      20.836  91.585  63.484  0.00  0.00     0.151 C 
ATOM     11  C   UNL d   1      22.013  90.385  61.070  0.00  0.00     0.160 C 
ATOM     12  C   UNL d   1      19.957  93.751  60.552  0.00  0.00     0.020 C 
ATOM     13  C   UNL d   1      22.392  92.072  59.230  0.00  0.00     0.206 C 
ATOM     14  C   UNL d   1      22.914  89.468  60.289  0.00  0.00     0.016 C 
ATOM     15  C   UNL d   1      23.055  90.984  58.392  0.00  0.00     0.184 C 
ATOM     16  C   UNL d   1      23.390  89.694  59.057  0.00  0.00    -0.015 C 
ATOM     17  C   UNL d   1      24.245  88.721  58.311  0.00  0.00     0.052 C 
ENDROOT
BRANCH   6  18
ATOM     18  C   UNL d   1      20.171  90.877  59.374  0.00  0.00     0.180 C 
BRANCH  18  19
ATOM     19  O   UNL d   1      19.779  89.691  60.020  0.00  0.00    -0.400 OA
ATOM     20  H   UNL d   1      19.058  89.300  59.498  0.00  0.00     0.209 HD
ENDBRANCH  18  19
ENDBRANCH   6  18
BRANCH  13  21
ATOM     21  O   UNL d   1      21.829  93.009  58.326  0.00  0.00    -0.387 OA
ATOM     22  H   UNL d   1      21.232  92.541  57.719  0.00  0.00     0.210 HD
ENDBRANCH  13  21
BRANCH  10  23
ATOM     23  O   UNL d   1      20.733  90.238  63.895  0.00  0.00    -0.393 OA
ATOM     24  H   UNL d   1      19.808  90.081  64.152  0.00  0.00     0.210 HD
ENDBRANCH  10  23
TORSDOF 4
ENDMDL
MODEL 40
REMARK minimizedAffinity -6.05783367
REMARK minimizedRMSD -1
REMARK  4 active torsions:
REMARK  status: ('A' for Active; 'I' for Inactive)
REMARK    1  A    between atoms: O_3  and  C_13 
REMARK    2  A    between atoms: O_4  and  C_16 
REMARK    3  A    between atoms: O_5  and  C_17 
REMARK    4  A    between atoms: C_9  and  C_17 
ROOT
ATOM      1  O   UNL d   1      21.237  79.414  71.238  0.00  0.00    -0.371 OA
ATOM      2  O   UNL d   1      20.326  80.408  67.854  0.00  0.00    -0.370 OA
ATOM      3  O   UNL d   1      20.369  75.876  65.795  0.00  0.00    -0.290 OA
ATOM      4  C   UNL d   1      22.462  78.983  69.096  0.00  0.00     0.010 C 
ATOM      5  C   UNL d   1      21.185  79.389  69.804  0.00  0.00     0.119 A 
ATOM      6  C   UNL d   1      22.028  78.560  67.612  0.00  0.00     0.054 C 
ATOM      7  C   UNL d   1      20.794  80.682  69.179  0.00  0.00     0.188 C 
ATOM      8  C   UNL d   1      23.216  80.370  69.076  0.00  0.00     0.048 C 
ATOM      9  C   UNL d   1      20.277  78.527  70.646  0.00  0.00     0.210 A 
ATOM     10  C   UNL d   1      22.122  81.454  69.213  0.00  0.00     0.151 C 
ATOM     11  C   UNL d   1      21.259  79.767  66.962  0.00  0.00     0.160 C 
ATOM     12  C   UNL d   1      23.303  77.953  69.854  0.00  0.00     0.020 C 
ATOM     13  C   UNL d   1      21.071  77.328  67.590  0.00  0.00     0.206 C 
ATOM     14  C   UNL d   1      20.473  79.416  65.730  0.00  0.00     0.016 C 
ATOM     15  C   UNL d   1      20.530  77.029  66.196  0.00  0.00     0.184 C 
ATOM     16  C   UNL d   1      20.142  78.179  65.334  0.00  0.00    -0.015 C 
ATOM     17  C   UNL d   1      19.398  77.888  64.069  0.00  0.00     0.052 C 
ENDROOT
BRANCH   6  18
ATOM     18  C   UNL d   1      23.280  78.224  66.752  0.00  0.00     0.180 C 
BRANCH  18  19
ATOM     19  O   UNL d   1      23.531  79.331  65.924  0.00  0.00    -0.400 OA
ATOM     20  H   UNL d   1      24.316  79.122  65.388  0.00  0.00     0.209 HD
ENDBRANCH  18  19
ENDBRANCH   6  18
BRANCH  13  21
ATOM     21  O   UNL d   1      21.721  76.153  68.047  0.00  0.00    -0.387 OA
ATOM     22  H   UNL d   1      22.393  75.893  67.396  0.00  0.00     0.210 HD
ENDBRANCH  13  21
BRANCH  10  23
ATOM     23  O   UNL d   1      22.199  82.449  68.214  0.00  0.00    -0.393 OA
ATOM     24  H   UNL d   1      23.090  82.838  68.256  0.00  0.00     0.210 HD
ENDBRANCH  10  23
TORSDOF 4
ENDMDL
