REMARK minimizedAffinity -6.55774879
REMARK minimizedRMSD -1
REMARK  4 active torsions:
REMARK  status: ('A' for Active; 'I' for Inactive)
REMARK    1  A    between atoms: O_3  and  C_13 
REMARK    2  A    between atoms: O_4  and  C_16 
REMARK    3  A    between atoms: O_5  and  C_17 
REMARK    4  A    between atoms: C_9  and  C_17 
ROOT
ATOM      1  O   UNL d   1      74.995  83.505  27.162  0.00  0.00    -0.371 OA
ATOM      2  O   UNL d   1      73.512  83.729  30.482  0.00  0.00    -0.370 OA
ATOM      3  O   UNL d   1      70.379  79.884  30.072  0.00  0.00    -0.290 OA
ATOM      4  C   UNL d   1      72.580  83.738  27.786  0.00  0.00     0.010 C 
ATOM      5  C   UNL d   1      74.002  83.408  28.194  0.00  0.00     0.119 A 
ATOM      6  C   UNL d   1      71.638  83.097  28.915  0.00  0.00     0.054 C 
ATOM      7  C   UNL d   1      74.267  84.259  29.387  0.00  0.00     0.188 C 
ATOM      8  C   UNL d   1      72.615  85.310  27.925  0.00  0.00     0.048 C 
ATOM      9  C   UNL d   1      74.834  82.219  27.778  0.00  0.00     0.210 A 
ATOM     10  C   UNL d   1      73.768  85.629  28.904  0.00  0.00     0.151 C 
ATOM     11  C   UNL d   1      72.083  83.670  30.309  0.00  0.00     0.160 C 
ATOM     12  C   UNL d   1      72.233  83.358  26.345  0.00  0.00     0.020 C 
ATOM     13  C   UNL d   1      71.753  81.544  28.987  0.00  0.00     0.206 C 
ATOM     14  C   UNL d   1      71.559  82.906  31.494  0.00  0.00     0.016 C 
ATOM     15  C   UNL d   1      70.984  80.952  30.163  0.00  0.00     0.184 C 
ATOM     16  C   UNL d   1      71.028  81.676  31.464  0.00  0.00    -0.015 C 
ATOM     17  C   UNL d   1      70.477  80.985  32.670  0.00  0.00     0.052 C 
ENDROOT
BRANCH   6  18
ATOM     18  C   UNL d   1      70.149  83.468  28.657  0.00  0.00     0.180 C 
BRANCH  18  19
ATOM     19  O   UNL d   1      69.839  84.563  29.482  0.00  0.00    -0.400 OA
ATOM     20  H   UNL d   1      68.909  84.795  29.319  0.00  0.00     0.209 HD
ENDBRANCH  18  19
ENDBRANCH   6  18
BRANCH  13  21
ATOM     21  O   UNL d   1      71.255  80.927  27.810  0.00  0.00    -0.387 OA
ATOM     22  H   UNL d   1      70.293  81.053  27.773  0.00  0.00     0.210 HD
ENDBRANCH  13  21
BRANCH  10  23
ATOM     23  O   UNL d   1      73.377  86.472  29.967  0.00  0.00    -0.393 OA
ATOM     24  H   UNL d   1      73.010  87.283  29.577  0.00  0.00     0.210 HD
ENDBRANCH  10  23
TORSDOF 4
