REMARK minimizedAffinity -6.45689726
REMARK minimizedRMSD -1
REMARK  4 active torsions:
REMARK  status: ('A' for Active; 'I' for Inactive)
REMARK    1  A    between atoms: O_3  and  C_13 
REMARK    2  A    between atoms: O_4  and  C_16 
REMARK    3  A    between atoms: O_5  and  C_17 
REMARK    4  A    between atoms: C_9  and  C_17 
ROOT
ATOM      1  O   UNL d   1      73.556  85.604  28.231  0.00  0.00    -0.371 OA
ATOM      2  O   UNL d   1      71.046  84.313  30.535  0.00  0.00    -0.370 OA
ATOM      3  O   UNL d   1      73.678  80.477  32.305  0.00  0.00    -0.290 OA
ATOM      4  C   UNL d   1      72.568  83.305  28.343  0.00  0.00     0.010 C 
ATOM      5  C   UNL d   1      72.810  84.648  29.000  0.00  0.00     0.119 A 
ATOM      6  C   UNL d   1      72.183  82.296  29.529  0.00  0.00     0.054 C 
ATOM      7  C   UNL d   1      71.462  85.117  29.425  0.00  0.00     0.188 C 
ATOM      8  C   UNL d   1      71.294  83.650  27.478  0.00  0.00     0.048 C 
ATOM      9  C   UNL d   1      74.118  85.217  29.494  0.00  0.00     0.210 A 
ATOM     10  C   UNL d   1      70.638  84.878  28.151  0.00  0.00     0.151 C 
ATOM     11  C   UNL d   1      70.951  82.894  30.301  0.00  0.00     0.160 C 
ATOM     12  C   UNL d   1      73.700  82.838  27.425  0.00  0.00     0.020 C 
ATOM     13  C   UNL d   1      73.337  82.109  30.561  0.00  0.00     0.206 C 
ATOM     14  C   UNL d   1      70.697  82.274  31.647  0.00  0.00     0.016 C 
ATOM     15  C   UNL d   1      72.916  81.282  31.771  0.00  0.00     0.184 C 
ATOM     16  C   UNL d   1      71.557  81.513  32.337  0.00  0.00    -0.015 C 
ATOM     17  C   UNL d   1      71.230  80.882  33.653  0.00  0.00     0.052 C 
ENDROOT
BRANCH   6  18
ATOM     18  C   UNL d   1      71.805  80.900  28.957  0.00  0.00     0.180 C 
BRANCH  18  19
ATOM     19  O   UNL d   1      70.413  80.889  28.762  0.00  0.00    -0.400 OA
ATOM     20  H   UNL d   1      70.176  80.016  28.403  0.00  0.00     0.209 HD
ENDBRANCH  18  19
ENDBRANCH   6  18
BRANCH  13  21
ATOM     21  O   UNL d   1      74.457  81.459  29.981  0.00  0.00    -0.387 OA
ATOM     22  H   UNL d   1      74.217  80.538  29.783  0.00  0.00     0.210 HD
ENDBRANCH  13  21
BRANCH  10  23
ATOM     23  O   UNL d   1      69.263  84.697  28.418  0.00  0.00    -0.393 OA
ATOM     24  H   UNL d   1      68.828  84.481  27.575  0.00  0.00     0.210 HD
ENDBRANCH  10  23
TORSDOF 4
