REMARK minimizedAffinity -6.27439594
REMARK minimizedRMSD -1
REMARK  4 active torsions:
REMARK  status: ('A' for Active; 'I' for Inactive)
REMARK    1  A    between atoms: O_3  and  C_13 
REMARK    2  A    between atoms: O_4  and  C_16 
REMARK    3  A    between atoms: O_5  and  C_17 
REMARK    4  A    between atoms: C_9  and  C_17 
ROOT
ATOM      1  O   UNL d   1      19.754  89.755  59.435  0.00  0.00    -0.371 OA
ATOM      2  O   UNL d   1      22.318  90.340  61.956  0.00  0.00    -0.370 OA
ATOM      3  O   UNL d   1      19.983  93.956  64.454  0.00  0.00    -0.290 OA
ATOM      4  C   UNL d   1      20.929  91.892  60.008  0.00  0.00     0.010 C 
ATOM      5  C   UNL d   1      20.562  90.471  60.382  0.00  0.00     0.119 A 
ATOM      6  C   UNL d   1      21.374  92.607  61.373  0.00  0.00     0.054 C 
ATOM      7  C   UNL d   1      21.858  89.813  60.707  0.00  0.00     0.188 C 
ATOM      8  C   UNL d   1      22.187  91.619  59.094  0.00  0.00     0.048 C 
ATOM      9  C   UNL d   1      19.202  89.929  60.747  0.00  0.00     0.210 A 
ATOM     10  C   UNL d   1      22.724  90.230  59.508  0.00  0.00     0.151 C 
ATOM     11  C   UNL d   1      22.536  91.763  62.012  0.00  0.00     0.160 C 
ATOM     12  C   UNL d   1      19.858  92.629  59.199  0.00  0.00     0.020 C 
ATOM     13  C   UNL d   1      20.219  92.682  62.418  0.00  0.00     0.206 C 
ATOM     14  C   UNL d   1      22.815  92.078  63.456  0.00  0.00     0.016 C 
ATOM     15  C   UNL d   1      20.685  93.211  63.771  0.00  0.00     0.184 C 
ATOM     16  C   UNL d   1      22.008  92.757  64.283  0.00  0.00    -0.015 C 
ATOM     17  C   UNL d   1      22.362  93.082  65.699  0.00  0.00     0.052 C 
ENDROOT
BRANCH   6  18
ATOM     18  C   UNL d   1      21.879  94.051  61.094  0.00  0.00     0.180 C 
BRANCH  18  19
ATOM     19  O   UNL d   1      23.265  93.977  60.873  0.00  0.00    -0.400 OA
ATOM     20  H   UNL d   1      23.580  94.880  60.696  0.00  0.00     0.209 HD
ENDBRANCH  18  19
ENDBRANCH   6  18
BRANCH  13  21
ATOM     21  O   UNL d   1      19.169  93.529  61.979  0.00  0.00    -0.387 OA
ATOM     22  H   UNL d   1      19.489  94.447  61.969  0.00  0.00     0.210 HD
ENDBRANCH  13  21
BRANCH  10  23
ATOM     23  O   UNL d   1      24.104  90.235  59.809  0.00  0.00    -0.393 OA
ATOM     24  H   UNL d   1      24.572  90.577  59.028  0.00  0.00     0.210 HD
ENDBRANCH  10  23
TORSDOF 4
