REMARK minimizedAffinity -6.62457657
REMARK minimizedRMSD -1
REMARK  4 active torsions:
REMARK  status: ('A' for Active; 'I' for Inactive)
REMARK    1  A    between atoms: O_3  and  C_13 
REMARK    2  A    between atoms: O_4  and  C_16 
REMARK    3  A    between atoms: O_5  and  C_17 
REMARK    4  A    between atoms: C_9  and  C_17 
ROOT
ATOM      1  O   UNL d   1      19.531  89.029  56.902  0.00  0.00    -0.371 OA
ATOM      2  O   UNL d   1      20.274  89.281  60.460  0.00  0.00    -0.370 OA
ATOM      3  O   UNL d   1      23.188  93.311  60.246  0.00  0.00    -0.290 OA
ATOM      4  C   UNL d   1      21.764  89.066  58.037  0.00  0.00     0.010 C 
ATOM      5  C   UNL d   1      20.271  89.318  58.098  0.00  0.00     0.119 A 
ATOM      6  C   UNL d   1      22.402  89.899  59.250  0.00  0.00     0.054 C 
ATOM      7  C   UNL d   1      19.806  88.578  59.304  0.00  0.00     0.188 C 
ATOM      8  C   UNL d   1      21.794  87.520  58.354  0.00  0.00     0.048 C 
ATOM      9  C   UNL d   1      19.479  90.381  57.378  0.00  0.00     0.210 A 
ATOM     10  C   UNL d   1      20.478  87.211  59.104  0.00  0.00     0.151 C 
ATOM     11  C   UNL d   1      21.701  89.442  60.581  0.00  0.00     0.160 C 
ATOM     12  C   UNL d   1      22.391  89.320  56.664  0.00  0.00     0.020 C 
ATOM     13  C   UNL d   1      22.181  91.436  59.108  0.00  0.00     0.206 C 
ATOM     14  C   UNL d   1      21.912  90.367  61.747  0.00  0.00     0.016 C 
ATOM     15  C   UNL d   1      22.642  92.212  60.338  0.00  0.00     0.184 C 
ATOM     16  C   UNL d   1      22.362  91.628  61.680  0.00  0.00    -0.015 C 
ATOM     17  C   UNL d   1      22.598  92.486  62.881  0.00  0.00     0.052 C 
ENDROOT
BRANCH   6  18
ATOM     18  C   UNL d   1      23.930  89.630  59.353  0.00  0.00     0.180 C 
BRANCH  18  19
ATOM     19  O   UNL d   1      24.124  88.691  60.382  0.00  0.00    -0.400 OA
ATOM     20  H   UNL d   1      25.079  88.521  60.445  0.00  0.00     0.209 HD
ENDBRANCH  18  19
ENDBRANCH   6  18
BRANCH  13  21
ATOM     21  O   UNL d   1      22.883  91.965  57.995  0.00  0.00    -0.387 OA
ATOM     22  H   UNL d   1      23.837  91.917  58.174  0.00  0.00     0.210 HD
ENDBRANCH  13  21
BRANCH  10  23
ATOM     23  O   UNL d   1      20.680  86.521  60.319  0.00  0.00    -0.393 OA
ATOM     24  H   UNL d   1      21.171  85.706  60.114  0.00  0.00     0.210 HD
ENDBRANCH  10  23
TORSDOF 4
