REMARK minimizedAffinity -6.62447643
REMARK minimizedRMSD -1
REMARK  4 active torsions:
REMARK  status: ('A' for Active; 'I' for Inactive)
REMARK    1  A    between atoms: O_3  and  C_13 
REMARK    2  A    between atoms: O_4  and  C_16 
REMARK    3  A    between atoms: O_5  and  C_17 
REMARK    4  A    between atoms: C_9  and  C_17 
ROOT
ATOM      1  O   UNL d   1      24.205  88.287  57.927  0.00  0.00    -0.371 OA
ATOM      2  O   UNL d   1      23.129  91.753  57.605  0.00  0.00    -0.370 OA
ATOM      3  O   UNL d   1      22.816  92.807  62.459  0.00  0.00    -0.290 OA
ATOM      4  C   UNL d   1      22.166  89.389  58.878  0.00  0.00     0.010 C 
ATOM      5  C   UNL d   1      23.538  89.517  58.249  0.00  0.00     0.119 A 
ATOM      6  C   UNL d   1      21.865  90.803  59.573  0.00  0.00     0.054 C 
ATOM      7  C   UNL d   1      23.346  90.434  57.091  0.00  0.00     0.188 C 
ATOM      8  C   UNL d   1      21.285  89.214  57.580  0.00  0.00     0.048 C 
ATOM      9  C   UNL d   1      24.873  89.157  58.852  0.00  0.00     0.210 A 
ATOM     10  C   UNL d   1      22.105  89.826  56.421  0.00  0.00     0.151 C 
ATOM     11  C   UNL d   1      21.996  91.924  58.479  0.00  0.00     0.160 C 
ATOM     12  C   UNL d   1      21.998  88.164  59.781  0.00  0.00     0.020 C 
ATOM     13  C   UNL d   1      22.873  91.141  60.714  0.00  0.00     0.206 C 
ATOM     14  C   UNL d   1      22.109  93.320  59.027  0.00  0.00     0.016 C 
ATOM     15  C   UNL d   1      22.687  92.552  61.262  0.00  0.00     0.184 C 
ATOM     16  C   UNL d   1      22.398  93.647  60.294  0.00  0.00    -0.015 C 
ATOM     17  C   UNL d   1      22.449  95.056  60.792  0.00  0.00     0.052 C 
ENDROOT
BRANCH   6  18
ATOM     18  C   UNL d   1      20.427  90.825  60.164  0.00  0.00     0.180 C 
BRANCH  18  19
ATOM     19  O   UNL d   1      19.585  91.410  59.202  0.00  0.00    -0.400 OA
ATOM     20  H   UNL d   1      18.686  91.422  59.571  0.00  0.00     0.209 HD
ENDBRANCH  18  19
ENDBRANCH   6  18
BRANCH  13  21
ATOM     21  O   UNL d   1      22.742  90.248  61.809  0.00  0.00    -0.387 OA
ATOM     22  H   UNL d   1      21.888  90.408  62.244  0.00  0.00     0.210 HD
ENDBRANCH  13  21
BRANCH  10  23
ATOM     23  O   UNL d   1      21.377  90.770  55.664  0.00  0.00    -0.393 OA
ATOM     24  H   UNL d   1      20.576  90.326  55.336  0.00  0.00     0.210 HD
ENDBRANCH  10  23
TORSDOF 4
