REMARK minimizedAffinity -6.70820189
REMARK minimizedRMSD -1
REMARK  4 active torsions:
REMARK  status: ('A' for Active; 'I' for Inactive)
REMARK    1  A    between atoms: O_3  and  C_13 
REMARK    2  A    between atoms: O_4  and  C_16 
REMARK    3  A    between atoms: O_5  and  C_17 
REMARK    4  A    between atoms: C_9  and  C_17 
ROOT
ATOM      1  O   UNL d   1      63.581  96.812  51.815  0.00  0.00    -0.371 OA
ATOM      2  O   UNL d   1      60.870  94.972  53.406  0.00  0.00    -0.370 OA
ATOM      3  O   UNL d   1      63.638  91.449  55.573  0.00  0.00    -0.290 OA
ATOM      4  C   UNL d   1      62.990  94.388  51.590  0.00  0.00     0.010 C 
ATOM      5  C   UNL d   1      62.852  95.695  52.345  0.00  0.00     0.119 A 
ATOM      6  C   UNL d   1      62.522  93.240  52.607  0.00  0.00     0.054 C 
ATOM      7  C   UNL d   1      61.384  95.917  52.462  0.00  0.00     0.188 C 
ATOM      8  C   UNL d   1      61.902  94.605  50.466  0.00  0.00     0.048 C 
ATOM      9  C   UNL d   1      63.902  96.413  53.155  0.00  0.00     0.210 A 
ATOM     10  C   UNL d   1      60.918  95.661  51.021  0.00  0.00     0.151 C 
ATOM     11  C   UNL d   1      61.067  93.579  53.095  0.00  0.00     0.160 C 
ATOM     12  C   UNL d   1      64.360  94.175  50.943  0.00  0.00     0.020 C 
ATOM     13  C   UNL d   1      63.430  93.147  53.871  0.00  0.00     0.206 C 
ATOM     14  C   UNL d   1      60.624  92.820  54.315  0.00  0.00     0.016 C 
ATOM     15  C   UNL d   1      62.892  92.170  54.911  0.00  0.00     0.184 C 
ATOM     16  C   UNL d   1      61.422  92.145  55.153  0.00  0.00    -0.015 C 
ATOM     17  C   UNL d   1      60.918  91.366  56.326  0.00  0.00     0.052 C 
ENDROOT
BRANCH   6  18
ATOM     18  C   UNL d   1      62.519  91.854  51.901  0.00  0.00     0.180 C 
BRANCH  18  19
ATOM     19  O   UNL d   1      63.746  91.722  51.227  0.00  0.00    -0.400 OA
ATOM     20  H   UNL d   1      63.745  90.855  50.787  0.00  0.00     0.209 HD
ENDBRANCH  18  19
ENDBRANCH   6  18
BRANCH  13  21
ATOM     21  O   UNL d   1      64.744  92.723  53.542  0.00  0.00    -0.387 OA
ATOM     22  H   UNL d   1      64.711  91.796  53.252  0.00  0.00     0.210 HD
ENDBRANCH  13  21
BRANCH  10  23
ATOM     23  O   UNL d   1      59.568  95.252  50.950  0.00  0.00    -0.393 OA
ATOM     24  H   UNL d   1      59.375  95.042  50.020  0.00  0.00     0.210 HD
ENDBRANCH  10  23
TORSDOF 4
