REMARK minimizedAffinity -6.74736786
REMARK minimizedRMSD -1
REMARK  4 active torsions:
REMARK  status: ('A' for Active; 'I' for Inactive)
REMARK    1  A    between atoms: O_3  and  C_13 
REMARK    2  A    between atoms: O_4  and  C_16 
REMARK    3  A    between atoms: O_5  and  C_17 
REMARK    4  A    between atoms: C_9  and  C_17 
ROOT
ATOM      1  O   UNL d   1      50.695  93.154  83.723  0.00  0.00    -0.371 OA
ATOM      2  O   UNL d   1      52.906  90.292  83.281  0.00  0.00    -0.370 OA
ATOM      3  O   UNL d   1      49.492  87.058  81.650  0.00  0.00    -0.290 OA
ATOM      4  C   UNL d   1      50.510  90.863  84.719  0.00  0.00     0.010 C 
ATOM      5  C   UNL d   1      51.117  91.782  83.679  0.00  0.00     0.119 A 
ATOM      6  C   UNL d   1      50.732  89.371  84.173  0.00  0.00     0.054 C 
ATOM      7  C   UNL d   1      52.588  91.586  83.805  0.00  0.00     0.188 C 
ATOM      8  C   UNL d   1      51.472  91.153  85.936  0.00  0.00     0.048 C 
ATOM      9  C   UNL d   1      50.429  92.439  82.507  0.00  0.00     0.210 A 
ATOM     10  C   UNL d   1      52.784  91.698  85.324  0.00  0.00     0.151 C 
ATOM     11  C   UNL d   1      52.269  89.167  83.916  0.00  0.00     0.160 C 
ATOM     12  C   UNL d   1      49.072  91.212  85.109  0.00  0.00     0.020 C 
ATOM     13  C   UNL d   1      49.992  89.105  82.826  0.00  0.00     0.206 C 
ATOM     14  C   UNL d   1      52.607  87.972  83.067  0.00  0.00     0.016 C 
ATOM     15  C   UNL d   1      50.335  87.746  82.226  0.00  0.00     0.184 C 
ATOM     16  C   UNL d   1      51.749  87.283  82.303  0.00  0.00    -0.015 C 
ATOM     17  C   UNL d   1      52.134  86.071  81.516  0.00  0.00     0.052 C 
ENDROOT
BRANCH   6  18
ATOM     18  C   UNL d   1      50.241  88.329  85.217  0.00  0.00     0.180 C 
BRANCH  18  19
ATOM     19  O   UNL d   1      51.376  87.828  85.878  0.00  0.00    -0.400 OA
ATOM     20  H   UNL d   1      51.069  87.177  86.532  0.00  0.00     0.209 HD
ENDBRANCH  18  19
ENDBRANCH   6  18
BRANCH  13  21
ATOM     21  O   UNL d   1      48.583  89.147  82.986  0.00  0.00    -0.387 OA
ATOM     22  H   UNL d   1      48.305  88.384  83.520  0.00  0.00     0.210 HD
ENDBRANCH  13  21
BRANCH  10  23
ATOM     23  O   UNL d   1      53.934  91.014  85.776  0.00  0.00    -0.393 OA
ATOM     24  H   UNL d   1      53.945  91.072  86.747  0.00  0.00     0.210 HD
ENDBRANCH  10  23
TORSDOF 4
