REMARK minimizedAffinity -6.16498041
REMARK minimizedRMSD -1
REMARK  4 active torsions:
REMARK  status: ('A' for Active; 'I' for Inactive)
REMARK    1  A    between atoms: O_3  and  C_13 
REMARK    2  A    between atoms: O_4  and  C_16 
REMARK    3  A    between atoms: O_5  and  C_17 
REMARK    4  A    between atoms: C_9  and  C_17 
ROOT
ATOM      1  O   UNL d   1      68.109  84.703  26.115  0.00  0.00    -0.371 OA
ATOM      2  O   UNL d   1      69.688  81.660  27.346  0.00  0.00    -0.370 OA
ATOM      3  O   UNL d   1      71.935  83.638  31.322  0.00  0.00    -0.290 OA
ATOM      4  C   UNL d   1      70.534  84.272  26.573  0.00  0.00     0.010 C 
ATOM      5  C   UNL d   1      69.085  83.864  26.751  0.00  0.00     0.119 A 
ATOM      6  C   UNL d   1      71.349  83.521  27.732  0.00  0.00     0.054 C 
ATOM      7  C   UNL d   1      69.034  82.435  26.336  0.00  0.00     0.188 C 
ATOM      8  C   UNL d   1      70.833  83.610  25.171  0.00  0.00     0.048 C 
ATOM      9  C   UNL d   1      68.013  84.574  27.540  0.00  0.00     0.210 A 
ATOM     10  C   UNL d   1      69.796  82.475  25.003  0.00  0.00     0.151 C 
ATOM     11  C   UNL d   1      71.068  81.979  27.609  0.00  0.00     0.160 C 
ATOM     12  C   UNL d   1      70.758  85.783  26.484  0.00  0.00     0.020 C 
ATOM     13  C   UNL d   1      70.912  83.965  29.161  0.00  0.00     0.206 C 
ATOM     14  C   UNL d   1      71.450  81.176  28.822  0.00  0.00     0.016 C 
ATOM     15  C   UNL d   1      71.569  83.135  30.260  0.00  0.00     0.184 C 
ATOM     16  C   UNL d   1      71.710  81.669  30.041  0.00  0.00    -0.015 C 
ATOM     17  C   UNL d   1      72.134  80.824  31.200  0.00  0.00     0.052 C 
ENDROOT
BRANCH   6  18
ATOM     18  C   UNL d   1      72.875  83.780  27.581  0.00  0.00     0.180 C 
BRANCH  18  19
ATOM     19  O   UNL d   1      73.413  82.711  26.844  0.00  0.00    -0.400 OA
ATOM     20  H   UNL d   1      74.367  82.874  26.749  0.00  0.00     0.209 HD
ENDBRANCH  18  19
ENDBRANCH   6  18
BRANCH  13  21
ATOM     21  O   UNL d   1      71.240  85.322  29.411  0.00  0.00    -0.387 OA
ATOM     22  H   UNL d   1      72.207  85.407  29.463  0.00  0.00     0.210 HD
ENDBRANCH  13  21
BRANCH  10  23
ATOM     23  O   UNL d   1      70.382  81.233  24.674  0.00  0.00    -0.393 OA
ATOM     24  H   UNL d   1      70.901  81.361  23.861  0.00  0.00     0.210 HD
ENDBRANCH  10  23
TORSDOF 4
