REMARK minimizedAffinity -6.84614277
REMARK minimizedRMSD -1
REMARK  4 active torsions:
REMARK  status: ('A' for Active; 'I' for Inactive)
REMARK    1  A    between atoms: O_3  and  C_13 
REMARK    2  A    between atoms: O_4  and  C_16 
REMARK    3  A    between atoms: O_5  and  C_17 
REMARK    4  A    between atoms: C_9  and  C_17 
ROOT
ATOM      1  O   UNL d   1      50.658  89.828  87.156  0.00  0.00    -0.371 OA
ATOM      2  O   UNL d   1      50.941  86.905  84.999  0.00  0.00    -0.370 OA
ATOM      3  O   UNL d   1      52.637  89.234  80.941  0.00  0.00    -0.290 OA
ATOM      4  C   UNL d   1      49.618  89.431  84.912  0.00  0.00     0.010 C 
ATOM      5  C   UNL d   1      50.652  89.048  85.951  0.00  0.00     0.119 A 
ATOM      6  C   UNL d   1      50.119  88.787  83.532  0.00  0.00     0.054 C 
ATOM      7  C   UNL d   1      50.461  87.587  86.164  0.00  0.00     0.188 C 
ATOM      8  C   UNL d   1      48.369  88.641  85.467  0.00  0.00     0.048 C 
ATOM      9  C   UNL d   1      51.867  89.832  86.383  0.00  0.00     0.210 A 
ATOM     10  C   UNL d   1      48.937  87.499  86.341  0.00  0.00     0.151 C 
ATOM     11  C   UNL d   1      50.307  87.242  83.750  0.00  0.00     0.160 C 
ATOM     12  C   UNL d   1      49.297  90.926  84.862  0.00  0.00     0.020 C 
ATOM     13  C   UNL d   1      51.489  89.363  83.059  0.00  0.00     0.206 C 
ATOM     14  C   UNL d   1      51.112  86.553  82.683  0.00  0.00     0.016 C 
ATOM     15  C   UNL d   1      52.042  88.637  81.838  0.00  0.00     0.184 C 
ATOM     16  C   UNL d   1      51.896  87.156  81.778  0.00  0.00    -0.015 C 
ATOM     17  C   UNL d   1      52.637  86.420  80.708  0.00  0.00     0.052 C 
ENDROOT
BRANCH   6  18
ATOM     18  C   UNL d   1      49.072  89.025  82.406  0.00  0.00     0.180 C 
BRANCH  18  19
ATOM     19  O   UNL d   1      48.171  87.946  82.435  0.00  0.00    -0.400 OA
ATOM     20  H   UNL d   1      47.515  88.097  81.733  0.00  0.00     0.209 HD
ENDBRANCH  18  19
ENDBRANCH   6  18
BRANCH  13  21
ATOM     21  O   UNL d   1      51.389  90.737  82.718  0.00  0.00    -0.387 OA
ATOM     22  H   UNL d   1      50.850  90.822  81.914  0.00  0.00     0.210 HD
ENDBRANCH  13  21
BRANCH  10  23
ATOM     23  O   UNL d   1      48.422  86.229  86.001  0.00  0.00    -0.393 OA
ATOM     24  H   UNL d   1      47.453  86.279  86.071  0.00  0.00     0.210 HD
ENDBRANCH  10  23
TORSDOF 4
