REMARK minimizedAffinity -7.19138956
REMARK minimizedRMSD -1
REMARK  4 active torsions:
REMARK  status: ('A' for Active; 'I' for Inactive)
REMARK    1  A    between atoms: O_3  and  C_13 
REMARK    2  A    between atoms: O_4  and  C_16 
REMARK    3  A    between atoms: O_5  and  C_17 
REMARK    4  A    between atoms: C_9  and  C_17 
ROOT
ATOM      1  O   UNL d   1      48.554  86.742  86.938  0.00  0.00    -0.371 OA
ATOM      2  O   UNL d   1      49.165  86.834  83.348  0.00  0.00    -0.370 OA
ATOM      3  O   UNL d   1      53.916  88.308  83.520  0.00  0.00    -0.290 OA
ATOM      4  C   UNL d   1      49.362  88.654  85.536  0.00  0.00     0.010 C 
ATOM      5  C   UNL d   1      49.112  87.167  85.686  0.00  0.00     0.119 A 
ATOM      6  C   UNL d   1      50.401  88.807  84.324  0.00  0.00     0.054 C 
ATOM      7  C   UNL d   1      48.306  86.790  84.492  0.00  0.00     0.188 C 
ATOM      8  C   UNL d   1      47.924  89.129  85.091  0.00  0.00     0.048 C 
ATOM      9  C   UNL d   1      49.831  86.192  86.586  0.00  0.00     0.210 A 
ATOM     10  C   UNL d   1      47.228  87.885  84.492  0.00  0.00     0.151 C 
ATOM     11  C   UNL d   1      49.789  88.101  83.060  0.00  0.00     0.160 C 
ATOM     12  C   UNL d   1      49.757  89.362  86.834  0.00  0.00     0.020 C 
ATOM     13  C   UNL d   1      51.775  88.131  84.619  0.00  0.00     0.206 C 
ATOM     14  C   UNL d   1      50.774  87.831  81.957  0.00  0.00     0.016 C 
ATOM     15  C   UNL d   1      52.703  88.134  83.408  0.00  0.00     0.184 C 
ATOM     16  C   UNL d   1      52.109  87.861  82.070  0.00  0.00    -0.015 C 
ATOM     17  C   UNL d   1      53.040  87.631  80.923  0.00  0.00     0.052 C 
ENDROOT
BRANCH   6  18
ATOM     18  C   UNL d   1      50.651  90.309  84.005  0.00  0.00     0.180 C 
BRANCH  18  19
ATOM     19  O   UNL d   1      49.770  90.672  82.972  0.00  0.00    -0.400 OA
ATOM     20  H   UNL d   1      49.925  91.611  82.775  0.00  0.00     0.209 HD
ENDBRANCH  18  19
ENDBRANCH   6  18
BRANCH  13  21
ATOM     21  O   UNL d   1      52.464  88.783  85.674  0.00  0.00    -0.387 OA
ATOM     22  H   UNL d   1      52.737  89.665  85.372  0.00  0.00     0.210 HD
ENDBRANCH  13  21
BRANCH  10  23
ATOM     23  O   UNL d   1      46.687  88.116  83.208  0.00  0.00    -0.393 OA
ATOM     24  H   UNL d   1      46.071  88.865  83.281  0.00  0.00     0.210 HD
ENDBRANCH  10  23
TORSDOF 4
