REMARK minimizedAffinity -7.2939539
REMARK minimizedRMSD -1
REMARK  4 active torsions:
REMARK  status: ('A' for Active; 'I' for Inactive)
REMARK    1  A    between atoms: O_3  and  C_13 
REMARK    2  A    between atoms: O_4  and  C_16 
REMARK    3  A    between atoms: O_5  and  C_17 
REMARK    4  A    between atoms: C_9  and  C_17 
ROOT
ATOM      1  O   UNL d   1      50.496  92.030  85.667  0.00  0.00    -0.371 OA
ATOM      2  O   UNL d   1      49.801  89.825  82.851  0.00  0.00    -0.370 OA
ATOM      3  O   UNL d   1      52.400  85.886  84.433  0.00  0.00    -0.290 OA
ATOM      4  C   UNL d   1      52.116  90.863  84.154  0.00  0.00     0.010 C 
ATOM      5  C   UNL d   1      50.706  90.998  84.691  0.00  0.00     0.119 A 
ATOM      6  C   UNL d   1      52.202  89.400  83.503  0.00  0.00     0.054 C 
ATOM      7  C   UNL d   1      49.844  91.110  83.482  0.00  0.00     0.188 C 
ATOM      8  C   UNL d   1      52.087  91.967  83.027  0.00  0.00     0.048 C 
ATOM      9  C   UNL d   1      50.208  90.687  86.081  0.00  0.00     0.210 A 
ATOM     10  C   UNL d   1      50.597  92.170  82.664  0.00  0.00     0.151 C 
ATOM     11  C   UNL d   1      51.063  89.275  82.427  0.00  0.00     0.160 C 
ATOM     12  C   UNL d   1      53.212  91.196  85.169  0.00  0.00     0.020 C 
ATOM     13  C   UNL d   1      51.988  88.261  84.547  0.00  0.00     0.206 C 
ATOM     14  C   UNL d   1      50.769  87.866  81.990  0.00  0.00     0.016 C 
ATOM     15  C   UNL d   1      51.907  86.882  83.902  0.00  0.00     0.184 C 
ATOM     16  C   UNL d   1      51.157  86.750  82.622  0.00  0.00    -0.015 C 
ATOM     17  C   UNL d   1      50.876  85.372  82.113  0.00  0.00     0.052 C 
ENDROOT
BRANCH   6  18
ATOM     18  C   UNL d   1      53.583  89.187  82.819  0.00  0.00     0.180 C 
BRANCH  18  19
ATOM     19  O   UNL d   1      54.338  88.342  83.651  0.00  0.00    -0.400 OA
ATOM     20  H   UNL d   1      55.200  88.207  83.222  0.00  0.00     0.209 HD
ENDBRANCH  18  19
ENDBRANCH   6  18
BRANCH  13  21
ATOM     21  O   UNL d   1      53.042  88.217  85.496  0.00  0.00    -0.387 OA
ATOM     22  H   UNL d   1      53.855  87.927  85.049  0.00  0.00     0.210 HD
ENDBRANCH  13  21
BRANCH  10  23
ATOM     23  O   UNL d   1      50.345  92.069  81.278  0.00  0.00    -0.393 OA
ATOM     24  H   UNL d   1      50.911  92.721  80.830  0.00  0.00     0.210 HD
ENDBRANCH  10  23
TORSDOF 4
