REMARK minimizedAffinity -7.89358425
REMARK minimizedRMSD -1
REMARK  4 active torsions:
REMARK  status: ('A' for Active; 'I' for Inactive)
REMARK    1  A    between atoms: O_3  and  C_13 
REMARK    2  A    between atoms: O_4  and  C_16 
REMARK    3  A    between atoms: O_5  and  C_17 
REMARK    4  A    between atoms: C_9  and  C_17 
ROOT
ATOM      1  O   UNL d   1      49.055  86.913  82.986  0.00  0.00    -0.371 OA
ATOM      2  O   UNL d   1      51.303  88.263  85.515  0.00  0.00    -0.370 OA
ATOM      3  O   UNL d   1      52.113  92.691  83.391  0.00  0.00    -0.290 OA
ATOM      4  C   UNL d   1      51.380  87.801  82.701  0.00  0.00     0.010 C 
ATOM      5  C   UNL d   1      50.131  87.679  83.550  0.00  0.00     0.119 A 
ATOM      6  C   UNL d   1      52.192  89.053  83.289  0.00  0.00     0.054 C 
ATOM      7  C   UNL d   1      50.610  87.188  84.871  0.00  0.00     0.188 C 
ATOM      8  C   UNL d   1      52.101  86.449  83.082  0.00  0.00     0.048 C 
ATOM      9  C   UNL d   1      48.773  88.286  83.294  0.00  0.00     0.210 A 
ATOM     10  C   UNL d   1      51.527  86.029  84.455  0.00  0.00     0.151 C 
ATOM     11  C   UNL d   1      52.445  88.799  84.819  0.00  0.00     0.160 C 
ATOM     12  C   UNL d   1      51.119  87.835  81.194  0.00  0.00     0.020 C 
ATOM     13  C   UNL d   1      51.408  90.394  83.159  0.00  0.00     0.206 C 
ATOM     14  C   UNL d   1      52.861  90.020  85.593  0.00  0.00     0.016 C 
ATOM     15  C   UNL d   1      52.107  91.554  83.862  0.00  0.00     0.184 C 
ATOM     16  C   UNL d   1      52.745  91.290  85.181  0.00  0.00    -0.015 C 
ATOM     17  C   UNL d   1      53.222  92.463  85.977  0.00  0.00     0.052 C 
ENDROOT
BRANCH   6  18
ATOM     18  C   UNL d   1      53.557  89.209  82.559  0.00  0.00     0.180 C 
BRANCH  18  19
ATOM     19  O   UNL d   1      54.552  88.712  83.418  0.00  0.00    -0.400 OA
ATOM     20  H   UNL d   1      55.405  88.807  82.961  0.00  0.00     0.209 HD
ENDBRANCH  18  19
ENDBRANCH   6  18
BRANCH  13  21
ATOM     21  O   UNL d   1      51.237  90.772  81.802  0.00  0.00    -0.387 OA
ATOM     22  H   UNL d   1      52.103  91.011  81.431  0.00  0.00     0.210 HD
ENDBRANCH  13  21
BRANCH  10  23
ATOM     23  O   UNL d   1      52.526  85.753  85.414  0.00  0.00    -0.393 OA
ATOM     24  H   UNL d   1      53.102  85.062  85.045  0.00  0.00     0.210 HD
ENDBRANCH  10  23
TORSDOF 4
