REMARK minimizedAffinity -6.6125803
REMARK minimizedRMSD -1
REMARK  4 active torsions:
REMARK  status: ('A' for Active; 'I' for Inactive)
REMARK    1  A    between atoms: O_3  and  C_13 
REMARK    2  A    between atoms: O_4  and  C_16 
REMARK    3  A    between atoms: O_5  and  C_17 
REMARK    4  A    between atoms: C_9  and  C_17 
ROOT
ATOM      1  O   UNL d   1      50.321  99.226  41.111  0.00  0.00    -0.371 OA
ATOM      2  O   UNL d   1      52.276  96.700  42.863  0.00  0.00    -0.370 OA
ATOM      3  O   UNL d   1      50.577  92.720  40.404  0.00  0.00    -0.290 OA
ATOM      4  C   UNL d   1      49.517  97.197  42.341  0.00  0.00     0.010 C 
ATOM      5  C   UNL d   1      50.656  97.955  41.690  0.00  0.00     0.119 A 
ATOM      6  C   UNL d   1      50.007  95.675  42.452  0.00  0.00     0.054 C 
ATOM      7  C   UNL d   1      51.722  98.013  42.728  0.00  0.00     0.188 C 
ATOM      8  C   UNL d   1      49.513  97.880  43.765  0.00  0.00     0.048 C 
ATOM      9  C   UNL d   1      50.862  98.238  40.222  0.00  0.00     0.210 A 
ATOM     10  C   UNL d   1      50.927  98.473  43.960  0.00  0.00     0.151 C 
ATOM     11  C   UNL d   1      51.364  95.653  43.245  0.00  0.00     0.160 C 
ATOM     12  C   UNL d   1      48.157  97.403  41.671  0.00  0.00     0.020 C 
ATOM     13  C   UNL d   1      50.266  95.021  41.061  0.00  0.00     0.206 C 
ATOM     14  C   UNL d   1      52.138  94.370  43.122  0.00  0.00     0.016 C 
ATOM     15  C   UNL d   1      50.887  93.632  41.170  0.00  0.00     0.184 C 
ATOM     16  C   UNL d   1      51.935  93.413  42.206  0.00  0.00    -0.015 C 
ATOM     17  C   UNL d   1      52.707  92.133  42.163  0.00  0.00     0.052 C 
ENDROOT
BRANCH   6  18
ATOM     18  C   UNL d   1      48.954  94.816  43.209  0.00  0.00     0.180 C 
BRANCH  18  19
ATOM     19  O   UNL d   1      49.438  94.608  44.513  0.00  0.00    -0.400 OA
ATOM     20  H   UNL d   1      48.779  94.074  44.987  0.00  0.00     0.209 HD
ENDBRANCH  18  19
ENDBRANCH   6  18
BRANCH  13  21
ATOM     21  O   UNL d   1      49.067  94.884  40.315  0.00  0.00    -0.387 OA
ATOM     22  H   UNL d   1      48.505  94.219  40.745  0.00  0.00     0.210 HD
ENDBRANCH  13  21
BRANCH  10  23
ATOM     23  O   UNL d   1      51.531  98.081  45.174  0.00  0.00    -0.393 OA
ATOM     24  H   UNL d   1      50.934  98.345  45.896  0.00  0.00     0.210 HD
ENDBRANCH  10  23
TORSDOF 4
