REMARK minimizedAffinity -7.67313194
REMARK minimizedRMSD -1
REMARK  4 active torsions:
REMARK  status: ('A' for Active; 'I' for Inactive)
REMARK    1  A    between atoms: O_3  and  C_13 
REMARK    2  A    between atoms: O_4  and  C_16 
REMARK    3  A    between atoms: O_5  and  C_17 
REMARK    4  A    between atoms: C_9  and  C_17 
ROOT
ATOM      1  O   UNL d   1      52.554  90.747  85.184  0.00  0.00    -0.371 OA
ATOM      2  O   UNL d   1      50.110  88.091  85.683  0.00  0.00    -0.370 OA
ATOM      3  O   UNL d   1      52.269  84.650  82.808  0.00  0.00    -0.290 OA
ATOM      4  C   UNL d   1      51.234  89.489  83.466  0.00  0.00     0.010 C 
ATOM      5  C   UNL d   1      51.746  89.597  84.887  0.00  0.00     0.119 A 
ATOM      6  C   UNL d   1      50.814  87.955  83.263  0.00  0.00     0.054 C 
ATOM      7  C   UNL d   1      50.536  89.457  85.743  0.00  0.00     0.188 C 
ATOM      8  C   UNL d   1      49.951  90.403  83.567  0.00  0.00     0.048 C 
ATOM      9  C   UNL d   1      53.169  89.464  85.373  0.00  0.00     0.210 A 
ATOM     10  C   UNL d   1      49.565  90.434  85.064  0.00  0.00     0.151 C 
ATOM     11  C   UNL d   1      49.772  87.580  84.379  0.00  0.00     0.160 C 
ATOM     12  C   UNL d   1      52.184  90.056  82.408  0.00  0.00     0.020 C 
ATOM     13  C   UNL d   1      52.020  86.976  83.399  0.00  0.00     0.206 C 
ATOM     14  C   UNL d   1      49.556  86.104  84.561  0.00  0.00     0.016 C 
ATOM     15  C   UNL d   1      51.594  85.512  83.370  0.00  0.00     0.184 C 
ATOM     16  C   UNL d   1      50.350  85.130  84.095  0.00  0.00    -0.015 C 
ATOM     17  C   UNL d   1      50.058  83.673  84.267  0.00  0.00     0.052 C 
ENDROOT
BRANCH   6  18
ATOM     18  C   UNL d   1      50.168  87.746  81.863  0.00  0.00     0.180 C 
BRANCH  18  19
ATOM     19  O   UNL d   1      48.773  87.816  82.029  0.00  0.00    -0.400 OA
ATOM     20  H   UNL d   1      48.370  87.687  81.154  0.00  0.00     0.209 HD
ENDBRANCH  18  19
ENDBRANCH   6  18
BRANCH  13  21
ATOM     21  O   UNL d   1      52.962  87.157  82.354  0.00  0.00    -0.387 OA
ATOM     22  H   UNL d   1      52.563  86.866  81.518  0.00  0.00     0.210 HD
ENDBRANCH  13  21
BRANCH  10  23
ATOM     23  O   UNL d   1      48.211  90.104  85.295  0.00  0.00    -0.393 OA
ATOM     24  H   UNL d   1      47.667  90.722  84.776  0.00  0.00     0.210 HD
ENDBRANCH  10  23
TORSDOF 4
