REMARK minimizedAffinity -7.78367043
REMARK minimizedRMSD -1
REMARK  4 active torsions:
REMARK  status: ('A' for Active; 'I' for Inactive)
REMARK    1  A    between atoms: O_3  and  C_13 
REMARK    2  A    between atoms: O_4  and  C_16 
REMARK    3  A    between atoms: O_5  and  C_17 
REMARK    4  A    between atoms: C_9  and  C_17 
ROOT
ATOM      1  O   UNL d   1      52.899  88.744  81.192  0.00  0.00    -0.371 OA
ATOM      2  O   UNL d   1      52.384  87.716  84.648  0.00  0.00    -0.370 OA
ATOM      3  O   UNL d   1      47.602  86.397  84.246  0.00  0.00    -0.290 OA
ATOM      4  C   UNL d   1      51.193  89.565  82.832  0.00  0.00     0.010 C 
ATOM      5  C   UNL d   1      52.215  88.520  82.434  0.00  0.00     0.119 A 
ATOM      6  C   UNL d   1      50.256  88.868  83.932  0.00  0.00     0.054 C 
ATOM      7  C   UNL d   1      53.112  88.389  83.615  0.00  0.00     0.188 C 
ATOM      8  C   UNL d   1      52.141  90.630  83.510  0.00  0.00     0.048 C 
ATOM      9  C   UNL d   1      52.137  87.533  81.295  0.00  0.00     0.210 A 
ATOM     10  C   UNL d   1      53.413  89.861  83.937  0.00  0.00     0.151 C 
ATOM     11  C   UNL d   1      51.172  88.350  85.100  0.00  0.00     0.160 C 
ATOM     12  C   UNL d   1      50.457  90.209  81.655  0.00  0.00     0.020 C 
ATOM     13  C   UNL d   1      49.475  87.642  83.370  0.00  0.00     0.206 C 
ATOM     14  C   UNL d   1      50.511  87.362  86.021  0.00  0.00     0.016 C 
ATOM     15  C   UNL d   1      48.713  86.884  84.452  0.00  0.00     0.184 C 
ATOM     16  C   UNL d   1      49.377  86.692  85.772  0.00  0.00    -0.015 C 
ATOM     17  C   UNL d   1      48.740  85.756  86.749  0.00  0.00     0.052 C 
ENDROOT
BRANCH   6  18
ATOM     18  C   UNL d   1      49.227  89.889  84.498  0.00  0.00     0.180 C 
BRANCH  18  19
ATOM     19  O   UNL d   1      49.774  90.429  85.675  0.00  0.00    -0.400 OA
ATOM     20  H   UNL d   1      49.132  91.069  86.027  0.00  0.00     0.209 HD
ENDBRANCH  18  19
ENDBRANCH   6  18
BRANCH  13  21
ATOM     21  O   UNL d   1      48.527  88.030  82.388  0.00  0.00    -0.387 OA
ATOM     22  H   UNL d   1      47.818  88.537  82.819  0.00  0.00     0.210 HD
ENDBRANCH  13  21
BRANCH  10  23
ATOM     23  O   UNL d   1      53.755  90.063  85.292  0.00  0.00    -0.393 OA
ATOM     24  H   UNL d   1      53.858  91.021  85.427  0.00  0.00     0.210 HD
ENDBRANCH  10  23
TORSDOF 4
