REMARK minimizedAffinity -6.11562586
REMARK minimizedRMSD -1
REMARK  4 active torsions:
REMARK  status: ('A' for Active; 'I' for Inactive)
REMARK    1  A    between atoms: O_3  and  C_13 
REMARK    2  A    between atoms: O_4  and  C_16 
REMARK    3  A    between atoms: O_5  and  C_17 
REMARK    4  A    between atoms: C_9  and  C_17 
ROOT
ATOM      1  O   UNL d   1      20.864  95.068  59.604  0.00  0.00    -0.371 OA
ATOM      2  O   UNL d   1      19.915  91.757  60.789  0.00  0.00    -0.370 OA
ATOM      3  O   UNL d   1      19.194  92.942  65.569  0.00  0.00    -0.290 OA
ATOM      4  C   UNL d   1      21.892  93.707  61.439  0.00  0.00     0.010 C 
ATOM      5  C   UNL d   1      20.728  93.955  60.501  0.00  0.00     0.119 A 
ATOM      6  C   UNL d   1      21.319  92.783  62.618  0.00  0.00     0.054 C 
ATOM      7  C   UNL d   1      20.491  92.648  59.828  0.00  0.00     0.188 C 
ATOM      8  C   UNL d   1      22.834  92.868  60.490  0.00  0.00     0.048 C 
ATOM      9  C   UNL d   1      19.756  95.109  60.514  0.00  0.00     0.210 A 
ATOM     10  C   UNL d   1      21.916  92.257  59.406  0.00  0.00     0.151 C 
ATOM     11  C   UNL d   1      20.695  91.494  61.971  0.00  0.00     0.160 C 
ATOM     12  C   UNL d   1      22.619  94.975  61.892  0.00  0.00     0.020 C 
ATOM     13  C   UNL d   1      20.197  93.485  63.443  0.00  0.00     0.206 C 
ATOM     14  C   UNL d   1      19.798  90.708  62.888  0.00  0.00     0.016 C 
ATOM     15  C   UNL d   1      19.541  92.551  64.455  0.00  0.00     0.184 C 
ATOM     16  C   UNL d   1      19.272  91.146  64.039  0.00  0.00    -0.015 C 
ATOM     17  C   UNL d   1      18.424  90.300  64.935  0.00  0.00     0.052 C 
ENDROOT
BRANCH   6  18
ATOM     18  C   UNL d   1      22.460  92.372  63.592  0.00  0.00     0.180 C 
BRANCH  18  19
ATOM     19  O   UNL d   1      22.825  91.051  63.277  0.00  0.00    -0.400 OA
ATOM     20  H   UNL d   1      23.540  90.795  63.885  0.00  0.00     0.209 HD
ENDBRANCH  18  19
ENDBRANCH   6  18
BRANCH  13  21
ATOM     21  O   UNL d   1      20.697  94.599  64.166  0.00  0.00    -0.387 OA
ATOM     22  H   UNL d   1      21.287  94.278  64.867  0.00  0.00     0.210 HD
ENDBRANCH  13  21
BRANCH  10  23
ATOM     23  O   UNL d   1      22.077  90.861  59.264  0.00  0.00    -0.393 OA
ATOM     24  H   UNL d   1      23.015  90.694  59.068  0.00  0.00     0.210 HD
ENDBRANCH  10  23
TORSDOF 4
