REMARK minimizedAffinity -8.12813377
REMARK minimizedRMSD -1
REMARK  4 active torsions:
REMARK  status: ('A' for Active; 'I' for Inactive)
REMARK    1  A    between atoms: O_3  and  C_13 
REMARK    2  A    between atoms: O_4  and  C_16 
REMARK    3  A    between atoms: O_5  and  C_17 
REMARK    4  A    between atoms: C_9  and  C_17 
ROOT
ATOM      1  O   UNL d   1      89.393  36.729  26.801  0.00  0.00    -0.371 OA
ATOM      2  O   UNL d   1      88.190  39.880  28.177  0.00  0.00    -0.370 OA
ATOM      3  O   UNL d   1      87.575  38.364  32.877  0.00  0.00    -0.290 OA
ATOM      4  C   UNL d   1      87.262  37.187  28.035  0.00  0.00     0.010 C 
ATOM      5  C   UNL d   1      88.659  37.627  27.647  0.00  0.00     0.119 A 
ATOM      6  C   UNL d   1      86.865  38.062  29.320  0.00  0.00     0.054 C 
ATOM      7  C   UNL d   1      88.489  38.997  27.090  0.00  0.00     0.188 C 
ATOM      8  C   UNL d   1      86.459  37.675  26.767  0.00  0.00     0.048 C 
ATOM      9  C   UNL d   1      89.974  37.027  28.079  0.00  0.00     0.210 A 
ATOM     10  C   UNL d   1      87.313  38.793  26.124  0.00  0.00     0.151 C 
ATOM     11  C   UNL d   1      87.006  39.581  28.941  0.00  0.00     0.160 C 
ATOM     12  C   UNL d   1      87.098  35.674  28.194  0.00  0.00     0.020 C 
ATOM     13  C   UNL d   1      87.795  37.794  30.542  0.00  0.00     0.206 C 
ATOM     14  C   UNL d   1      87.030  40.517  30.118  0.00  0.00     0.016 C 
ATOM     15  C   UNL d   1      87.521  38.741  31.707  0.00  0.00     0.184 C 
ATOM     16  C   UNL d   1      87.237  40.170  31.395  0.00  0.00    -0.015 C 
ATOM     17  C   UNL d   1      87.202  41.141  32.532  0.00  0.00     0.052 C 
ENDROOT
BRANCH   6  18
ATOM     18  C   UNL d   1      85.397  37.770  29.746  0.00  0.00     0.180 C 
BRANCH  18  19
ATOM     19  O   UNL d   1      84.576  38.706  29.092  0.00  0.00    -0.400 OA
ATOM     20  H   UNL d   1      83.659  38.522  29.357  0.00  0.00     0.209 HD
ENDBRANCH  18  19
ENDBRANCH   6  18
BRANCH  13  21
ATOM     21  O   UNL d   1      87.644  36.472  31.036  0.00  0.00    -0.387 OA
ATOM     22  H   UNL d   1      86.762  36.385  31.434  0.00  0.00     0.210 HD
ENDBRANCH  13  21
BRANCH  10  23
ATOM     23  O   UNL d   1      86.587  39.982  25.891  0.00  0.00    -0.393 OA
ATOM     24  H   UNL d   1      85.823  39.753  25.332  0.00  0.00     0.210 HD
ENDBRANCH  10  23
TORSDOF 4
