REMARK minimizedAffinity -6.87200451
REMARK minimizedRMSD -1
REMARK  4 active torsions:
REMARK  status: ('A' for Active; 'I' for Inactive)
REMARK    1  A    between atoms: O_3  and  C_13 
REMARK    2  A    between atoms: O_4  and  C_16 
REMARK    3  A    between atoms: O_5  and  C_17 
REMARK    4  A    between atoms: C_9  and  C_17 
ROOT
ATOM      1  O   UNL d   1      85.871  49.293   2.838  0.00  0.00    -0.371 OA
ATOM      2  O   UNL d   1      83.096  47.703   4.583  0.00  0.00    -0.370 OA
ATOM      3  O   UNL d   1      82.170  44.130   1.244  0.00  0.00    -0.290 OA
ATOM      4  C   UNL d   1      83.543  48.867   2.018  0.00  0.00     0.010 C 
ATOM      5  C   UNL d   1      84.638  48.580   3.025  0.00  0.00     0.119 A 
ATOM      6  C   UNL d   1      82.511  47.644   2.129  0.00  0.00     0.054 C 
ATOM      7  C   UNL d   1      84.002  48.788   4.355  0.00  0.00     0.188 C 
ATOM      8  C   UNL d   1      82.921  50.171   2.654  0.00  0.00     0.048 C 
ATOM      9  C   UNL d   1      85.944  47.861   2.794  0.00  0.00     0.210 A 
ATOM     10  C   UNL d   1      83.301  50.140   4.153  0.00  0.00     0.151 C 
ATOM     11  C   UNL d   1      82.035  47.538   3.623  0.00  0.00     0.160 C 
ATOM     12  C   UNL d   1      84.047  49.176   0.607  0.00  0.00     0.020 C 
ATOM     13  C   UNL d   1      83.153  46.277   1.743  0.00  0.00     0.206 C 
ATOM     14  C   UNL d   1      81.363  46.239   3.973  0.00  0.00     0.016 C 
ATOM     15  C   UNL d   1      82.222  45.097   2.004  0.00  0.00     0.184 C 
ATOM     16  C   UNL d   1      81.405  45.112   3.250  0.00  0.00    -0.015 C 
ATOM     17  C   UNL d   1      80.676  43.862   3.625  0.00  0.00     0.052 C 
ENDROOT
BRANCH   6  18
ATOM     18  C   UNL d   1      81.278  47.885   1.211  0.00  0.00     0.180 C 
BRANCH  18  19
ATOM     19  O   UNL d   1      80.285  48.501   1.993  0.00  0.00    -0.400 OA
ATOM     20  H   UNL d   1      79.516  48.653   1.418  0.00  0.00     0.209 HD
ENDBRANCH  18  19
ENDBRANCH   6  18
BRANCH  13  21
ATOM     21  O   UNL d   1      83.505  46.233   0.369  0.00  0.00    -0.387 OA
ATOM     22  H   UNL d   1      82.693  46.228  -0.163  0.00  0.00     0.210 HD
ENDBRANCH  13  21
BRANCH  10  23
ATOM     23  O   UNL d   1      82.193  50.312   5.011  0.00  0.00    -0.393 OA
ATOM     24  H   UNL d   1      81.766  51.152   4.771  0.00  0.00     0.210 HD
ENDBRANCH  10  23
TORSDOF 4
