REMARK minimizedAffinity -6.34797192
REMARK minimizedRMSD -1
REMARK  4 active torsions:
REMARK  status: ('A' for Active; 'I' for Inactive)
REMARK    1  A    between atoms: O_3  and  C_13 
REMARK    2  A    between atoms: O_4  and  C_16 
REMARK    3  A    between atoms: O_5  and  C_17 
REMARK    4  A    between atoms: C_9  and  C_17 
ROOT
ATOM      1  O   UNL d   1      82.612  49.996   5.286  0.00  0.00    -0.371 OA
ATOM      2  O   UNL d   1      83.681  49.978   1.804  0.00  0.00    -0.370 OA
ATOM      3  O   UNL d   1      79.627  47.829  -0.126  0.00  0.00    -0.290 OA
ATOM      4  C   UNL d   1      82.805  48.053   3.718  0.00  0.00     0.010 C 
ATOM      5  C   UNL d   1      82.738  49.552   3.927  0.00  0.00     0.119 A 
ATOM      6  C   UNL d   1      82.449  47.806   2.174  0.00  0.00     0.054 C 
ATOM      7  C   UNL d   1      83.925  50.094   3.210  0.00  0.00     0.188 C 
ATOM      8  C   UNL d   1      84.344  47.810   3.973  0.00  0.00     0.048 C 
ATOM      9  C   UNL d   1      81.558  50.372   4.388  0.00  0.00     0.210 A 
ATOM     10  C   UNL d   1      85.040  49.167   3.717  0.00  0.00     0.151 C 
ATOM     11  C   UNL d   1      83.447  48.649   1.299  0.00  0.00     0.160 C 
ATOM     12  C   UNL d   1      81.985  47.238   4.720  0.00  0.00     0.020 C 
ATOM     13  C   UNL d   1      81.004  48.264   1.808  0.00  0.00     0.206 C 
ATOM     14  C   UNL d   1      83.027  48.823  -0.134  0.00  0.00     0.016 C 
ATOM     15  C   UNL d   1      80.723  48.181   0.311  0.00  0.00     0.184 C 
ATOM     16  C   UNL d   1      81.802  48.597  -0.628  0.00  0.00    -0.015 C 
ATOM     17  C   UNL d   1      81.455  48.741  -2.075  0.00  0.00     0.052 C 
ENDROOT
BRANCH   6  18
ATOM     18  C   UNL d   1      82.593  46.300   1.814  0.00  0.00     0.180 C 
BRANCH  18  19
ATOM     19  O   UNL d   1      83.892  46.110   1.311  0.00  0.00    -0.400 OA
ATOM     20  H   UNL d   1      83.983  45.167   1.088  0.00  0.00     0.209 HD
ENDBRANCH  18  19
ENDBRANCH   6  18
BRANCH  13  21
ATOM     21  O   UNL d   1      80.023  47.472   2.460  0.00  0.00    -0.387 OA
ATOM     22  H   UNL d   1      80.047  46.575   2.090  0.00  0.00     0.210 HD
ENDBRANCH  13  21
BRANCH  10  23
ATOM     23  O   UNL d   1      86.123  49.074   2.816  0.00  0.00    -0.393 OA
ATOM     24  H   UNL d   1      86.746  48.418   3.175  0.00  0.00     0.210 HD
ENDBRANCH  10  23
TORSDOF 4
