REMARK minimizedAffinity -6.74546909
REMARK minimizedRMSD -1
REMARK  4 active torsions:
REMARK  status: ('A' for Active; 'I' for Inactive)
REMARK    1  A    between atoms: O_3  and  C_13 
REMARK    2  A    between atoms: O_4  and  C_16 
REMARK    3  A    between atoms: O_5  and  C_17 
REMARK    4  A    between atoms: C_9  and  C_17 
ROOT
ATOM      1  O   UNL d   1      69.310  46.260  57.363  0.00  0.00    -0.371 OA
ATOM      2  O   UNL d   1      71.861  45.582  59.873  0.00  0.00    -0.370 OA
ATOM      3  O   UNL d   1      69.839  41.454  61.781  0.00  0.00    -0.290 OA
ATOM      4  C   UNL d   1      69.038  45.982  59.838  0.00  0.00     0.010 C 
ATOM      5  C   UNL d   1      69.887  45.804  58.596  0.00  0.00     0.119 A 
ATOM      6  C   UNL d   1      69.651  44.990  60.938  0.00  0.00     0.054 C 
ATOM      7  C   UNL d   1      71.195  46.431  58.932  0.00  0.00     0.188 C 
ATOM      8  C   UNL d   1      69.384  47.481  60.193  0.00  0.00     0.048 C 
ATOM      9  C   UNL d   1      69.650  44.868  57.437  0.00  0.00     0.210 A 
ATOM     10  C   UNL d   1      70.748  47.775  59.527  0.00  0.00     0.151 C 
ATOM     11  C   UNL d   1      71.174  45.335  61.115  0.00  0.00     0.160 C 
ATOM     12  C   UNL d   1      67.532  45.847  59.598  0.00  0.00     0.020 C 
ATOM     13  C   UNL d   1      69.556  43.491  60.519  0.00  0.00     0.206 C 
ATOM     14  C   UNL d   1      71.976  44.279  61.824  0.00  0.00     0.016 C 
ATOM     15  C   UNL d   1      70.284  42.563  61.487  0.00  0.00     0.184 C 
ATOM     16  C   UNL d   1      71.594  43.012  62.035  0.00  0.00    -0.015 C 
ATOM     17  C   UNL d   1      72.416  42.016  62.790  0.00  0.00     0.052 C 
ENDROOT
BRANCH   6  18
ATOM     18  C   UNL d   1      68.921  45.167  62.300  0.00  0.00     0.180 C 
BRANCH  18  19
ATOM     19  O   UNL d   1      69.680  46.064  63.072  0.00  0.00    -0.400 OA
ATOM     20  H   UNL d   1      69.222  46.176  63.922  0.00  0.00     0.209 HD
ENDBRANCH  18  19
ENDBRANCH   6  18
BRANCH  13  21
ATOM     21  O   UNL d   1      68.209  43.051  60.453  0.00  0.00    -0.387 OA
ATOM     22  H   UNL d   1      67.841  43.029  61.352  0.00  0.00     0.210 HD
ENDBRANCH  13  21
BRANCH  10  23
ATOM     23  O   UNL d   1      71.697  48.317  60.421  0.00  0.00    -0.393 OA
ATOM     24  H   UNL d   1      71.310  49.122  60.806  0.00  0.00     0.210 HD
ENDBRANCH  10  23
TORSDOF 4
