REMARK minimizedAffinity -7.3038168
REMARK minimizedRMSD -1
REMARK  4 active torsions:
REMARK  status: ('A' for Active; 'I' for Inactive)
REMARK    1  A    between atoms: O_3  and  C_13 
REMARK    2  A    between atoms: O_4  and  C_16 
REMARK    3  A    between atoms: O_5  and  C_17 
REMARK    4  A    between atoms: C_9  and  C_17 
ROOT
ATOM      1  O   UNL d   1      84.380  60.679  55.356  0.00  0.00    -0.371 OA
ATOM      2  O   UNL d   1      86.801  59.755  52.796  0.00  0.00    -0.370 OA
ATOM      3  O   UNL d   1      85.631  63.269  49.472  0.00  0.00    -0.290 OA
ATOM      4  C   UNL d   1      83.974  60.098  52.953  0.00  0.00     0.010 C 
ATOM      5  C   UNL d   1      84.942  60.501  54.047  0.00  0.00     0.119 A 
ATOM      6  C   UNL d   1      84.706  60.441  51.568  0.00  0.00     0.054 C 
ATOM      7  C   UNL d   1      86.038  59.496  53.979  0.00  0.00     0.188 C 
ATOM      8  C   UNL d   1      83.936  58.536  53.184  0.00  0.00     0.048 C 
ATOM      9  C   UNL d   1      85.024  61.821  54.773  0.00  0.00     0.210 A 
ATOM     10  C   UNL d   1      85.247  58.180  53.923  0.00  0.00     0.151 C 
ATOM     11  C   UNL d   1      86.089  59.694  51.545  0.00  0.00     0.160 C 
ATOM     12  C   UNL d   1      82.565  60.674  53.113  0.00  0.00     0.020 C 
ATOM     13  C   UNL d   1      84.992  61.964  51.398  0.00  0.00     0.206 C 
ATOM     14  C   UNL d   1      87.050  60.192  50.501  0.00  0.00     0.016 C 
ATOM     15  C   UNL d   1      85.831  62.270  50.162  0.00  0.00     0.184 C 
ATOM     16  C   UNL d   1      86.953  61.348  49.831  0.00  0.00    -0.015 C 
ATOM     17  C   UNL d   1      87.916  61.769  48.767  0.00  0.00     0.052 C 
ENDROOT
BRANCH   6  18
ATOM     18  C   UNL d   1      83.844  59.966  50.363  0.00  0.00     0.180 C 
BRANCH  18  19
ATOM     19  O   UNL d   1      84.270  58.670  50.025  0.00  0.00    -0.400 OA
ATOM     20  H   UNL d   1      83.730  58.373  49.273  0.00  0.00     0.209 HD
ENDBRANCH  18  19
ENDBRANCH   6  18
BRANCH  13  21
ATOM     21  O   UNL d   1      83.793  62.713  51.285  0.00  0.00    -0.387 OA
ATOM     22  H   UNL d   1      83.367  62.496  50.439  0.00  0.00     0.210 HD
ENDBRANCH  13  21
BRANCH  10  23
ATOM     23  O   UNL d   1      85.968  57.137  53.303  0.00  0.00    -0.393 OA
ATOM     24  H   UNL d   1      85.376  56.368  53.243  0.00  0.00     0.210 HD
ENDBRANCH  10  23
TORSDOF 4
