REMARK minimizedAffinity -7.16051054
REMARK minimizedRMSD -1
REMARK  4 active torsions:
REMARK  status: ('A' for Active; 'I' for Inactive)
REMARK    1  A    between atoms: O_3  and  C_13 
REMARK    2  A    between atoms: O_4  and  C_16 
REMARK    3  A    between atoms: O_5  and  C_17 
REMARK    4  A    between atoms: C_9  and  C_17 
ROOT
ATOM      1  O   UNL d   1      87.796  38.348  34.812  0.00  0.00    -0.371 OA
ATOM      2  O   UNL d   1      85.098  40.043  33.046  0.00  0.00    -0.370 OA
ATOM      3  O   UNL d   1      85.318  37.423  28.821  0.00  0.00    -0.290 OA
ATOM      4  C   UNL d   1      87.859  39.495  32.585  0.00  0.00     0.010 C 
ATOM      5  C   UNL d   1      87.048  38.888  33.712  0.00  0.00     0.119 A 
ATOM      6  C   UNL d   1      86.876  39.561  31.320  0.00  0.00     0.054 C 
ATOM      7  C   UNL d   1      86.070  39.945  34.093  0.00  0.00     0.188 C 
ATOM      8  C   UNL d   1      88.102  40.940  33.171  0.00  0.00     0.048 C 
ATOM      9  C   UNL d   1      86.946  37.435  34.104  0.00  0.00     0.210 A 
ATOM     10  C   UNL d   1      86.978  41.179  34.205  0.00  0.00     0.151 C 
ATOM     11  C   UNL d   1      85.596  40.375  31.736  0.00  0.00     0.160 C 
ATOM     12  C   UNL d   1      89.205  38.809  32.337  0.00  0.00     0.020 C 
ATOM     13  C   UNL d   1      86.403  38.152  30.849  0.00  0.00     0.206 C 
ATOM     14  C   UNL d   1      84.428  40.220  30.802  0.00  0.00     0.016 C 
ATOM     15  C   UNL d   1      85.343  38.224  29.754  0.00  0.00     0.184 C 
ATOM     16  C   UNL d   1      84.287  39.269  29.869  0.00  0.00    -0.015 C 
ATOM     17  C   UNL d   1      83.122  39.194  28.935  0.00  0.00     0.052 C 
ENDROOT
BRANCH   6  18
ATOM     18  C   UNL d   1      87.572  40.271  30.124  0.00  0.00     0.180 C 
BRANCH  18  19
ATOM     19  O   UNL d   1      87.813  39.297  29.140  0.00  0.00    -0.400 OA
ATOM     20  H   UNL d   1      88.247  39.742  28.391  0.00  0.00     0.209 HD
ENDBRANCH  18  19
ENDBRANCH   6  18
BRANCH  13  21
ATOM     21  O   UNL d   1      87.479  37.383  30.337  0.00  0.00    -0.387 OA
ATOM     22  H   UNL d   1      87.781  37.780  29.503  0.00  0.00     0.210 HD
ENDBRANCH  13  21
BRANCH  10  23
ATOM     23  O   UNL d   1      86.280  42.389  33.999  0.00  0.00    -0.393 OA
ATOM     24  H   UNL d   1      86.934  43.109  34.014  0.00  0.00     0.210 HD
ENDBRANCH  10  23
TORSDOF 4
