REMARK minimizedAffinity -6.17869902
REMARK minimizedRMSD -1
REMARK  4 active torsions:
REMARK  status: ('A' for Active; 'I' for Inactive)
REMARK    1  A    between atoms: O_3  and  C_13 
REMARK    2  A    between atoms: O_4  and  C_16 
REMARK    3  A    between atoms: O_5  and  C_17 
REMARK    4  A    between atoms: C_9  and  C_17 
ROOT
ATOM      1  O   UNL d   1      45.613  38.798   8.411  0.00  0.00    -0.371 OA
ATOM      2  O   UNL d   1      47.811  38.377  11.286  0.00  0.00    -0.370 OA
ATOM      3  O   UNL d   1      44.862  40.491  14.693  0.00  0.00    -0.290 OA
ATOM      4  C   UNL d   1      46.496  40.543   9.976  0.00  0.00     0.010 C 
ATOM      5  C   UNL d   1      46.236  39.082   9.673  0.00  0.00     0.119 A 
ATOM      6  C   UNL d   1      46.713  40.633  11.562  0.00  0.00     0.054 C 
ATOM      7  C   UNL d   1      47.547  38.407   9.879  0.00  0.00     0.188 C 
ATOM      8  C   UNL d   1      47.869  40.738   9.220  0.00  0.00     0.048 C 
ATOM      9  C   UNL d   1      44.905  38.376   9.585  0.00  0.00     0.210 A 
ATOM     10  C   UNL d   1      48.494  39.329   9.097  0.00  0.00     0.151 C 
ATOM     11  C   UNL d   1      47.877  39.651  11.955  0.00  0.00     0.160 C 
ATOM     12  C   UNL d   1      45.453  41.503   9.400  0.00  0.00     0.020 C 
ATOM     13  C   UNL d   1      45.449  40.208  12.369  0.00  0.00     0.206 C 
ATOM     14  C   UNL d   1      47.961  39.340  13.423  0.00  0.00     0.016 C 
ATOM     15  C   UNL d   1      45.707  40.137  13.871  0.00  0.00     0.184 C 
ATOM     16  C   UNL d   1      47.004  39.568  14.332  0.00  0.00    -0.015 C 
ATOM     17  C   UNL d   1      47.164  39.281  15.791  0.00  0.00     0.052 C 
ENDROOT
BRANCH   6  18
ATOM     18  C   UNL d   1      47.098  42.082  11.979  0.00  0.00     0.180 C 
BRANCH  18  19
ATOM     19  O   UNL d   1      48.502  42.164  11.968  0.00  0.00    -0.400 OA
ATOM     20  H   UNL d   1      48.742  43.070  12.226  0.00  0.00     0.209 HD
ENDBRANCH  18  19
ENDBRANCH   6  18
BRANCH  13  21
ATOM     21  O   UNL d   1      44.374  41.114  12.173  0.00  0.00    -0.387 OA
ATOM     22  H   UNL d   1      44.599  41.963  12.589  0.00  0.00     0.210 HD
ENDBRANCH  13  21
BRANCH  10  23
ATOM     23  O   UNL d   1      49.824  39.269   9.566  0.00  0.00    -0.393 OA
ATOM     24  H   UNL d   1      50.339  39.929   9.071  0.00  0.00     0.210 HD
ENDBRANCH  10  23
TORSDOF 4
