REMARK minimizedAffinity -6.450418
REMARK minimizedRMSD -1
REMARK  4 active torsions:
REMARK  status: ('A' for Active; 'I' for Inactive)
REMARK    1  A    between atoms: O_3  and  C_13 
REMARK    2  A    between atoms: O_4  and  C_16 
REMARK    3  A    between atoms: O_5  and  C_17 
REMARK    4  A    between atoms: C_9  and  C_17 
ROOT
ATOM      1  O   UNL d   1      55.299  53.941  44.368  0.00  0.00    -0.371 OA
ATOM      2  O   UNL d   1      58.140  53.896  42.088  0.00  0.00    -0.370 OA
ATOM      3  O   UNL d   1      59.891  58.440  43.117  0.00  0.00    -0.290 OA
ATOM      4  C   UNL d   1      55.860  55.552  42.534  0.00  0.00     0.010 C 
ATOM      5  C   UNL d   1      56.296  54.436  43.462  0.00  0.00     0.119 A 
ATOM      6  C   UNL d   1      57.210  56.241  42.009  0.00  0.00     0.054 C 
ATOM      7  C   UNL d   1      56.885  53.401  42.569  0.00  0.00     0.188 C 
ATOM      8  C   UNL d   1      55.191  54.704  41.383  0.00  0.00     0.048 C 
ATOM      9  C   UNL d   1      56.483  54.494  44.958  0.00  0.00     0.210 A 
ATOM     10  C   UNL d   1      55.811  53.290  41.476  0.00  0.00     0.151 C 
ATOM     11  C   UNL d   1      58.102  55.130  41.345  0.00  0.00     0.160 C 
ATOM     12  C   UNL d   1      54.826  56.506  43.135  0.00  0.00     0.020 C 
ATOM     13  C   UNL d   1      58.043  56.888  43.157  0.00  0.00     0.206 C 
ATOM     14  C   UNL d   1      59.538  55.525  41.135  0.00  0.00     0.016 C 
ATOM     15  C   UNL d   1      59.400  57.398  42.682  0.00  0.00     0.184 C 
ATOM     16  C   UNL d   1      60.159  56.566  41.707  0.00  0.00    -0.015 C 
ATOM     17  C   UNL d   1      61.578  56.939  41.422  0.00  0.00     0.052 C 
ENDROOT
BRANCH   6  18
ATOM     18  C   UNL d   1      56.888  57.340  40.956  0.00  0.00     0.180 C 
BRANCH  18  19
ATOM     19  O   UNL d   1      57.215  56.820  39.691  0.00  0.00    -0.400 OA
ATOM     20  H   UNL d   1      57.012  57.506  39.033  0.00  0.00     0.209 HD
ENDBRANCH  18  19
ENDBRANCH   6  18
BRANCH  13  21
ATOM     21  O   UNL d   1      57.364  57.989  43.739  0.00  0.00    -0.387 OA
ATOM     22  H   UNL d   1      57.325  58.712  43.091  0.00  0.00     0.210 HD
ENDBRANCH  13  21
BRANCH  10  23
ATOM     23  O   UNL d   1      56.330  52.829  40.247  0.00  0.00    -0.393 OA
ATOM     24  H   UNL d   1      55.607  52.856  39.596  0.00  0.00     0.210 HD
ENDBRANCH  10  23
TORSDOF 4
