REMARK minimizedAffinity -6.55510378
REMARK minimizedRMSD -1
REMARK  4 active torsions:
REMARK  status: ('A' for Active; 'I' for Inactive)
REMARK    1  A    between atoms: O_3  and  C_13 
REMARK    2  A    between atoms: O_4  and  C_16 
REMARK    3  A    between atoms: O_5  and  C_17 
REMARK    4  A    between atoms: C_9  and  C_17 
ROOT
ATOM      1  O   UNL d   1      72.973  66.884  31.094  0.00  0.00    -0.371 OA
ATOM      2  O   UNL d   1      70.629  69.424  29.943  0.00  0.00    -0.370 OA
ATOM      3  O   UNL d   1      66.777  68.125  32.814  0.00  0.00    -0.290 OA
ATOM      4  C   UNL d   1      70.685  66.578  30.120  0.00  0.00     0.010 C 
ATOM      5  C   UNL d   1      71.718  67.490  30.751  0.00  0.00     0.119 A 
ATOM      6  C   UNL d   1      69.276  67.323  30.291  0.00  0.00     0.054 C 
ATOM      7  C   UNL d   1      71.827  68.648  29.822  0.00  0.00     0.188 C 
ATOM      8  C   UNL d   1      71.158  66.631  28.615  0.00  0.00     0.048 C 
ATOM      9  C   UNL d   1      72.229  67.470  32.171  0.00  0.00     0.210 A 
ATOM     10  C   UNL d   1      71.964  67.942  28.465  0.00  0.00     0.151 C 
ATOM     11  C   UNL d   1      69.393  68.750  29.642  0.00  0.00     0.160 C 
ATOM     12  C   UNL d   1      70.730  65.133  30.621  0.00  0.00     0.020 C 
ATOM     13  C   UNL d   1      68.874  67.519  31.785  0.00  0.00     0.206 C 
ATOM     14  C   UNL d   1      68.299  69.705  30.033  0.00  0.00     0.016 C 
ATOM     15  C   UNL d   1      67.618  68.369  31.949  0.00  0.00     0.184 C 
ATOM     16  C   UNL d   1      67.455  69.555  31.063  0.00  0.00    -0.015 C 
ATOM     17  C   UNL d   1      66.353  70.517  31.375  0.00  0.00     0.052 C 
ENDROOT
BRANCH   6  18
ATOM     18  C   UNL d   1      68.146  66.524  29.580  0.00  0.00     0.180 C 
BRANCH  18  19
ATOM     19  O   UNL d   1      67.918  67.136  28.335  0.00  0.00    -0.400 OA
ATOM     20  H   UNL d   1      67.214  66.635  27.889  0.00  0.00     0.209 HD
ENDBRANCH  18  19
ENDBRANCH   6  18
BRANCH  13  21
ATOM     21  O   UNL d   1      68.625  66.278  32.427  0.00  0.00    -0.387 OA
ATOM     22  H   UNL d   1      67.817  65.889  32.054  0.00  0.00     0.210 HD
ENDBRANCH  13  21
BRANCH  10  23
ATOM     23  O   UNL d   1      71.527  68.743  27.387  0.00  0.00    -0.393 OA
ATOM     24  H   UNL d   1      71.579  68.201  26.581  0.00  0.00     0.210 HD
ENDBRANCH  10  23
TORSDOF 4
