REMARK minimizedAffinity -6.08764505
REMARK minimizedRMSD -1
REMARK  4 active torsions:
REMARK  status: ('A' for Active; 'I' for Inactive)
REMARK    1  A    between atoms: O_3  and  C_13 
REMARK    2  A    between atoms: O_4  and  C_16 
REMARK    3  A    between atoms: O_5  and  C_17 
REMARK    4  A    between atoms: C_9  and  C_17 
ROOT
ATOM      1  O   UNL d   1      71.577  67.730  28.554  0.00  0.00    -0.371 OA
ATOM      2  O   UNL d   1      68.083  68.631  29.059  0.00  0.00    -0.370 OA
ATOM      3  O   UNL d   1      68.712  71.524  33.060  0.00  0.00    -0.290 OA
ATOM      4  C   UNL d   1      70.161  67.429  30.599  0.00  0.00     0.010 C 
ATOM      5  C   UNL d   1      70.373  68.088  29.251  0.00  0.00     0.119 A 
ATOM      6  C   UNL d   1      69.071  68.325  31.361  0.00  0.00     0.054 C 
ATOM      7  C   UNL d   1      69.120  67.823  28.492  0.00  0.00     0.188 C 
ATOM      8  C   UNL d   1      69.524  66.060  30.136  0.00  0.00     0.048 C 
ATOM      9  C   UNL d   1      71.410  69.119  28.876  0.00  0.00     0.210 A 
ATOM     10  C   UNL d   1      68.927  66.318  28.733  0.00  0.00     0.151 C 
ATOM     11  C   UNL d   1      67.791  68.418  30.453  0.00  0.00     0.160 C 
ATOM     12  C   UNL d   1      71.449  67.156  31.379  0.00  0.00     0.020 C 
ATOM     13  C   UNL d   1      69.564  69.780  31.626  0.00  0.00     0.206 C 
ATOM     14  C   UNL d   1      66.828  69.505  30.841  0.00  0.00     0.016 C 
ATOM     15  C   UNL d   1      68.472  70.675  32.202  0.00  0.00     0.184 C 
ATOM     16  C   UNL d   1      67.093  70.537  31.654  0.00  0.00    -0.015 C 
ATOM     17  C   UNL d   1      66.078  71.564  32.043  0.00  0.00     0.052 C 
ENDROOT
BRANCH   6  18
ATOM     18  C   UNL d   1      68.690  67.679  32.724  0.00  0.00     0.180 C 
BRANCH  18  19
ATOM     19  O   UNL d   1      67.578  66.849  32.500  0.00  0.00    -0.400 OA
ATOM     20  H   UNL d   1      67.341  66.444  33.352  0.00  0.00     0.209 HD
ENDBRANCH  18  19
ENDBRANCH   6  18
BRANCH  13  21
ATOM     21  O   UNL d   1      70.649  69.806  32.540  0.00  0.00    -0.387 OA
ATOM     22  H   UNL d   1      70.326  69.543  33.418  0.00  0.00     0.210 HD
ENDBRANCH  13  21
BRANCH  10  23
ATOM     23  O   UNL d   1      67.577  65.918  28.622  0.00  0.00    -0.393 OA
ATOM     24  H   UNL d   1      67.531  64.976  28.859  0.00  0.00     0.210 HD
ENDBRANCH  10  23
TORSDOF 4
