REMARK minimizedAffinity -6.90710878
REMARK minimizedRMSD -1
REMARK  4 active torsions:
REMARK  status: ('A' for Active; 'I' for Inactive)
REMARK    1  A    between atoms: O_3  and  C_13 
REMARK    2  A    between atoms: O_4  and  C_16 
REMARK    3  A    between atoms: O_5  and  C_17 
REMARK    4  A    between atoms: C_9  and  C_17 
ROOT
ATOM      1  O   UNL d   1      85.110  58.958  48.763  0.00  0.00    -0.371 OA
ATOM      2  O   UNL d   1      83.833  59.565  52.120  0.00  0.00    -0.370 OA
ATOM      3  O   UNL d   1      80.679  63.242  50.977  0.00  0.00    -0.290 OA
ATOM      4  C   UNL d   1      85.094  61.095  50.069  0.00  0.00     0.010 C 
ATOM      5  C   UNL d   1      84.578  59.683  49.882  0.00  0.00     0.119 A 
ATOM      6  C   UNL d   1      84.033  61.829  51.022  0.00  0.00     0.054 C 
ATOM      7  C   UNL d   1      84.784  59.020  51.199  0.00  0.00     0.188 C 
ATOM      8  C   UNL d   1      86.428  60.796  50.858  0.00  0.00     0.048 C 
ATOM      9  C   UNL d   1      83.690  59.158  48.781  0.00  0.00     0.210 A 
ATOM     10  C   UNL d   1      86.236  59.410  51.515  0.00  0.00     0.151 C 
ATOM     11  C   UNL d   1      83.895  60.987  52.343  0.00  0.00     0.160 C 
ATOM     12  C   UNL d   1      85.422  61.825  48.765  0.00  0.00     0.020 C 
ATOM     13  C   UNL d   1      82.616  61.932  50.381  0.00  0.00     0.206 C 
ATOM     14  C   UNL d   1      82.689  61.325  53.175  0.00  0.00     0.016 C 
ATOM     15  C   UNL d   1      81.572  62.480  51.348  0.00  0.00     0.184 C 
ATOM     16  C   UNL d   1      81.621  62.024  52.765  0.00  0.00    -0.015 C 
ATOM     17  C   UNL d   1      80.470  62.371  53.654  0.00  0.00     0.052 C 
ENDROOT
BRANCH   6  18
ATOM     18  C   UNL d   1      84.518  63.264  51.374  0.00  0.00     0.180 C 
BRANCH  18  19
ATOM     19  O   UNL d   1      85.128  63.204  52.639  0.00  0.00    -0.400 OA
ATOM     20  H   UNL d   1      85.433  64.101  52.859  0.00  0.00     0.209 HD
ENDBRANCH  18  19
ENDBRANCH   6  18
BRANCH  13  21
ATOM     21  O   UNL d   1      82.616  62.779  49.243  0.00  0.00    -0.387 OA
ATOM     22  H   UNL d   1      82.770  63.694  49.533  0.00  0.00     0.210 HD
ENDBRANCH  13  21
BRANCH  10  23
ATOM     23  O   UNL d   1      86.511  59.409  52.901  0.00  0.00    -0.393 OA
ATOM     24  H   UNL d   1      87.420  59.734  53.018  0.00  0.00     0.210 HD
ENDBRANCH  10  23
TORSDOF 4
