REMARK minimizedAffinity -6.14030981
REMARK minimizedRMSD -1
REMARK  4 active torsions:
REMARK  status: ('A' for Active; 'I' for Inactive)
REMARK    1  A    between atoms: O_3  and  C_13 
REMARK    2  A    between atoms: O_4  and  C_16 
REMARK    3  A    between atoms: O_5  and  C_17 
REMARK    4  A    between atoms: C_9  and  C_17 
ROOT
ATOM      1  O   UNL d   1      86.512  32.603  16.591  0.00  0.00    -0.371 OA
ATOM      2  O   UNL d   1      82.993  31.662  16.606  0.00  0.00    -0.370 OA
ATOM      3  O   UNL d   1      83.039  28.975  20.795  0.00  0.00    -0.290 OA
ATOM      4  C   UNL d   1      85.504  30.311  16.664  0.00  0.00     0.010 C 
ATOM      5  C   UNL d   1      85.340  31.808  16.826  0.00  0.00     0.119 A 
ATOM      6  C   UNL d   1      84.264  29.645  17.433  0.00  0.00     0.054 C 
ATOM      7  C   UNL d   1      84.174  32.162  15.970  0.00  0.00     0.188 C 
ATOM      8  C   UNL d   1      85.315  30.183  15.102  0.00  0.00     0.048 C 
ATOM      9  C   UNL d   1      85.926  32.695  17.898  0.00  0.00     0.210 A 
ATOM     10  C   UNL d   1      84.521  31.435  14.662  0.00  0.00     0.151 C 
ATOM     11  C   UNL d   1      82.938  30.241  16.835  0.00  0.00     0.160 C 
ATOM     12  C   UNL d   1      86.884  29.780  17.059  0.00  0.00     0.020 C 
ATOM     13  C   UNL d   1      84.268  29.952  18.962  0.00  0.00     0.206 C 
ATOM     14  C   UNL d   1      81.714  30.009  17.677  0.00  0.00     0.016 C 
ATOM     15  C   UNL d   1      83.006  29.459  19.663  0.00  0.00     0.184 C 
ATOM     16  C   UNL d   1      81.704  29.628  18.962  0.00  0.00    -0.015 C 
ATOM     17  C   UNL d   1      80.451  29.365  19.735  0.00  0.00     0.052 C 
ENDROOT
BRANCH   6  18
ATOM     18  C   UNL d   1      84.268  28.102  17.242  0.00  0.00     0.180 C 
BRANCH  18  19
ATOM     19  O   UNL d   1      83.442  27.812  16.142  0.00  0.00    -0.400 OA
ATOM     20  H   UNL d   1      83.447  26.847  16.021  0.00  0.00     0.209 HD
ENDBRANCH  18  19
ENDBRANCH   6  18
BRANCH  13  21
ATOM     21  O   UNL d   1      85.372  29.345  19.615  0.00  0.00    -0.387 OA
ATOM     22  H   UNL d   1      85.251  28.381  19.606  0.00  0.00     0.210 HD
ENDBRANCH  13  21
BRANCH  10  23
ATOM     23  O   UNL d   1      83.379  31.126  13.891  0.00  0.00    -0.393 OA
ATOM     24  H   UNL d   1      83.677  30.607  13.124  0.00  0.00     0.210 HD
ENDBRANCH  10  23
TORSDOF 4
