REMARK minimizedAffinity -6.24115992
REMARK minimizedRMSD -1
REMARK  4 active torsions:
REMARK  status: ('A' for Active; 'I' for Inactive)
REMARK    1  A    between atoms: O_3  and  C_13 
REMARK    2  A    between atoms: O_4  and  C_16 
REMARK    3  A    between atoms: O_5  and  C_17 
REMARK    4  A    between atoms: C_9  and  C_17 
ROOT
ATOM      1  O   UNL d   1      53.343  61.744  17.249  0.00  0.00    -0.371 OA
ATOM      2  O   UNL d   1      52.435  62.663  20.655  0.00  0.00    -0.370 OA
ATOM      3  O   UNL d   1      48.726  65.787  19.534  0.00  0.00    -0.290 OA
ATOM      4  C   UNL d   1      53.224  64.025  18.277  0.00  0.00     0.010 C 
ATOM      5  C   UNL d   1      52.870  62.553  18.336  0.00  0.00     0.119 A 
ATOM      6  C   UNL d   1      52.209  64.764  19.274  0.00  0.00     0.054 C 
ATOM      7  C   UNL d   1      53.323  62.103  19.681  0.00  0.00     0.188 C 
ATOM      8  C   UNL d   1      54.675  63.982  18.898  0.00  0.00     0.048 C 
ATOM      9  C   UNL d   1      51.922  61.790  17.443  0.00  0.00     0.210 A 
ATOM     10  C   UNL d   1      54.743  62.686  19.739  0.00  0.00     0.151 C 
ATOM     11  C   UNL d   1      52.346  64.100  20.693  0.00  0.00     0.160 C 
ATOM     12  C   UNL d   1      53.291  64.602  16.860  0.00  0.00     0.020 C 
ATOM     13  C   UNL d   1      50.720  64.624  18.833  0.00  0.00     0.206 C 
ATOM     14  C   UNL d   1      51.222  64.417  21.640  0.00  0.00     0.016 C 
ATOM     15  C   UNL d   1      49.747  65.184  19.864  0.00  0.00     0.184 C 
ATOM     16  C   UNL d   1      50.032  64.934  21.305  0.00  0.00    -0.015 C 
ATOM     17  C   UNL d   1      48.969  65.273  22.300  0.00  0.00     0.052 C 
ENDROOT
BRANCH   6  18
ATOM     18  C   UNL d   1      52.551  66.278  19.378  0.00  0.00     0.180 C 
BRANCH  18  19
ATOM     19  O   UNL d   1      53.463  66.432  20.437  0.00  0.00    -0.400 OA
ATOM     20  H   UNL d   1      53.678  67.378  20.500  0.00  0.00     0.209 HD
ENDBRANCH  18  19
ENDBRANCH   6  18
BRANCH  13  21
ATOM     21  O   UNL d   1      50.471  65.303  17.612  0.00  0.00    -0.387 OA
ATOM     22  H   UNL d   1      50.544  66.260  17.765  0.00  0.00     0.210 HD
ENDBRANCH  13  21
BRANCH  10  23
ATOM     23  O   UNL d   1      55.188  62.905  21.061  0.00  0.00    -0.393 OA
ATOM     24  H   UNL d   1      56.057  63.339  21.009  0.00  0.00     0.210 HD
ENDBRANCH  10  23
TORSDOF 4
