REMARK minimizedAffinity -6.24794149
REMARK minimizedRMSD -1
REMARK  4 active torsions:
REMARK  status: ('A' for Active; 'I' for Inactive)
REMARK    1  A    between atoms: O_3  and  C_13 
REMARK    2  A    between atoms: O_4  and  C_16 
REMARK    3  A    between atoms: O_5  and  C_17 
REMARK    4  A    between atoms: C_9  and  C_17 
ROOT
ATOM      1  O   UNL d   1      45.810  36.197  11.528  0.00  0.00    -0.371 OA
ATOM      2  O   UNL d   1      48.900  37.270   9.925  0.00  0.00    -0.370 OA
ATOM      3  O   UNL d   1      48.665  42.081  11.178  0.00  0.00    -0.290 OA
ATOM      4  C   UNL d   1      46.144  37.993   9.814  0.00  0.00     0.010 C 
ATOM      5  C   UNL d   1      46.736  37.056  10.847  0.00  0.00     0.119 A 
ATOM      6  C   UNL d   1      47.241  39.139   9.576  0.00  0.00     0.054 C 
ATOM      7  C   UNL d   1      47.831  36.341  10.134  0.00  0.00     0.188 C 
ATOM      8  C   UNL d   1      46.081  37.023   8.570  0.00  0.00     0.048 C 
ATOM      9  C   UNL d   1      46.566  37.101  12.346  0.00  0.00     0.210 A 
ATOM     10  C   UNL d   1      47.126  35.915   8.837  0.00  0.00     0.151 C 
ATOM     11  C   UNL d   1      48.589  38.448   9.157  0.00  0.00     0.160 C 
ATOM     12  C   UNL d   1      44.735  38.490  10.147  0.00  0.00     0.020 C 
ATOM     13  C   UNL d   1      47.524  39.978  10.859  0.00  0.00     0.206 C 
ATOM     14  C   UNL d   1      49.800  39.333   9.253  0.00  0.00     0.016 C 
ATOM     15  C   UNL d   1      48.680  40.956  10.678  0.00  0.00     0.184 C 
ATOM     16  C   UNL d   1      49.874  40.495   9.917  0.00  0.00    -0.015 C 
ATOM     17  C   UNL d   1      51.095  41.358   9.937  0.00  0.00     0.052 C 
ENDROOT
BRANCH   6  18
ATOM     18  C   UNL d   1      46.784  40.106   8.447  0.00  0.00     0.180 C 
BRANCH  18  19
ATOM     19  O   UNL d   1      47.345  39.643   7.244  0.00  0.00    -0.400 OA
ATOM     20  H   UNL d   1      47.057  40.247   6.538  0.00  0.00     0.209 HD
ENDBRANCH  18  19
ENDBRANCH   6  18
BRANCH  13  21
ATOM     21  O   UNL d   1      46.391  40.740  11.247  0.00  0.00    -0.387 OA
ATOM     22  H   UNL d   1      46.238  41.434  10.585  0.00  0.00     0.210 HD
ENDBRANCH  13  21
BRANCH  10  23
ATOM     23  O   UNL d   1      48.025  35.729   7.765  0.00  0.00    -0.393 OA
ATOM     24  H   UNL d   1      47.497  35.534   6.971  0.00  0.00     0.210 HD
ENDBRANCH  10  23
TORSDOF 4
