REMARK minimizedAffinity -6.19702625
REMARK minimizedRMSD -1
REMARK  4 active torsions:
REMARK  status: ('A' for Active; 'I' for Inactive)
REMARK    1  A    between atoms: O_3  and  C_13 
REMARK    2  A    between atoms: O_4  and  C_16 
REMARK    3  A    between atoms: O_5  and  C_17 
REMARK    4  A    between atoms: C_9  and  C_17 
ROOT
ATOM      1  O   UNL d   1      69.264  70.714  33.313  0.00  0.00    -0.371 OA
ATOM      2  O   UNL d   1      68.085  67.267  33.349  0.00  0.00    -0.370 OA
ATOM      3  O   UNL d   1      71.089  65.499  29.796  0.00  0.00    -0.290 OA
ATOM      4  C   UNL d   1      68.356  69.349  31.418  0.00  0.00     0.010 C 
ATOM      5  C   UNL d   1      68.931  69.407  32.819  0.00  0.00     0.119 A 
ATOM      6  C   UNL d   1      68.536  67.832  30.931  0.00  0.00     0.054 C 
ATOM      7  C   UNL d   1      67.961  68.658  33.664  0.00  0.00     0.188 C 
ATOM      8  C   UNL d   1      66.839  69.650  31.733  0.00  0.00     0.048 C 
ATOM      9  C   UNL d   1      70.338  69.767  33.230  0.00  0.00     0.210 A 
ATOM     10  C   UNL d   1      66.626  69.271  33.217  0.00  0.00     0.151 C 
ATOM     11  C   UNL d   1      67.837  66.893  31.980  0.00  0.00     0.160 C 
ATOM     12  C   UNL d   1      68.903  70.415  30.466  0.00  0.00     0.020 C 
ATOM     13  C   UNL d   1      70.032  67.401  30.839  0.00  0.00     0.206 C 
ATOM     14  C   UNL d   1      68.222  65.443  31.875  0.00  0.00     0.016 C 
ATOM     15  C   UNL d   1      70.197  65.915  30.535  0.00  0.00     0.184 C 
ATOM     16  C   UNL d   1      69.276  64.956  31.205  0.00  0.00    -0.015 C 
ATOM     17  C   UNL d   1      69.582  63.497  31.096  0.00  0.00     0.052 C 
ENDROOT
BRANCH   6  18
ATOM     18  C   UNL d   1      67.879  67.626  29.536  0.00  0.00     0.180 C 
BRANCH  18  19
ATOM     19  O   UNL d   1      68.917  67.482  28.599  0.00  0.00    -0.400 OA
ATOM     20  H   UNL d   1      68.506  67.351  27.727  0.00  0.00     0.209 HD
ENDBRANCH  18  19
ENDBRANCH   6  18
BRANCH  13  21
ATOM     21  O   UNL d   1      70.721  68.114  29.824  0.00  0.00    -0.387 OA
ATOM     22  H   UNL d   1      70.380  67.834  28.958  0.00  0.00     0.210 HD
ENDBRANCH  13  21
BRANCH  10  23
ATOM     23  O   UNL d   1      65.532  68.400  33.416  0.00  0.00    -0.393 OA
ATOM     24  H   UNL d   1      64.744  68.831  33.044  0.00  0.00     0.210 HD
ENDBRANCH  10  23
TORSDOF 4
