REMARK minimizedAffinity -6.41487026
REMARK minimizedRMSD -1
REMARK  4 active torsions:
REMARK  status: ('A' for Active; 'I' for Inactive)
REMARK    1  A    between atoms: O_3  and  C_13 
REMARK    2  A    between atoms: O_4  and  C_16 
REMARK    3  A    between atoms: O_5  and  C_17 
REMARK    4  A    between atoms: C_9  and  C_17 
ROOT
ATOM      1  O   UNL d   1      66.130  46.264  59.187  0.00  0.00    -0.371 OA
ATOM      2  O   UNL d   1      68.354  48.266  57.109  0.00  0.00    -0.370 OA
ATOM      3  O   UNL d   1      70.749  44.511  54.887  0.00  0.00    -0.290 OA
ATOM      4  C   UNL d   1      68.632  46.218  59.074  0.00  0.00     0.010 C 
ATOM      5  C   UNL d   1      67.311  46.632  58.459  0.00  0.00     0.119 A 
ATOM      6  C   UNL d   1      69.712  46.287  57.891  0.00  0.00     0.054 C 
ATOM      7  C   UNL d   1      67.448  48.093  58.204  0.00  0.00     0.188 C 
ATOM      8  C   UNL d   1      68.848  47.409  60.087  0.00  0.00     0.048 C 
ATOM      9  C   UNL d   1      66.251  45.745  57.855  0.00  0.00     0.210 A 
ATOM     10  C   UNL d   1      68.006  48.588  59.547  0.00  0.00     0.151 C 
ATOM     11  C   UNL d   1      69.683  47.737  57.285  0.00  0.00     0.160 C 
ATOM     12  C   UNL d   1      68.583  44.895  59.843  0.00  0.00     0.020 C 
ATOM     13  C   UNL d   1      69.403  45.289  56.733  0.00  0.00     0.206 C 
ATOM     14  C   UNL d   1      70.356  47.868  55.946  0.00  0.00     0.016 C 
ATOM     15  C   UNL d   1      70.333  45.470  55.538  0.00  0.00     0.184 C 
ATOM     16  C   UNL d   1      70.691  46.858  55.132  0.00  0.00    -0.015 C 
ATOM     17  C   UNL d   1      71.404  47.047  53.831  0.00  0.00     0.052 C 
ENDROOT
BRANCH   6  18
ATOM     18  C   UNL d   1      71.138  45.984  58.434  0.00  0.00     0.180 C 
BRANCH  18  19
ATOM     19  O   UNL d   1      71.733  47.214  58.764  0.00  0.00    -0.400 OA
ATOM     20  H   UNL d   1      72.623  47.024  59.105  0.00  0.00     0.209 HD
ENDBRANCH  18  19
ENDBRANCH   6  18
BRANCH  13  21
ATOM     21  O   UNL d   1      69.527  43.941  57.158  0.00  0.00    -0.387 OA
ATOM     22  H   UNL d   1      70.464  43.753  57.337  0.00  0.00     0.210 HD
ENDBRANCH  13  21
BRANCH  10  23
ATOM     23  O   UNL d   1      68.743  49.786  59.421  0.00  0.00    -0.393 OA
ATOM     24  H   UNL d   1      69.119  49.990  60.295  0.00  0.00     0.210 HD
ENDBRANCH  10  23
TORSDOF 4
