REMARK minimizedAffinity -6.20101118
REMARK minimizedRMSD -1
REMARK  4 active torsions:
REMARK  status: ('A' for Active; 'I' for Inactive)
REMARK    1  A    between atoms: O_3  and  C_13 
REMARK    2  A    between atoms: O_4  and  C_16 
REMARK    3  A    between atoms: O_5  and  C_17 
REMARK    4  A    between atoms: C_9  and  C_17 
ROOT
ATOM      1  O   UNL d   1      73.831  73.077  21.184  0.00  0.00    -0.371 OA
ATOM      2  O   UNL d   1      75.703  69.969  21.509  0.00  0.00    -0.370 OA
ATOM      3  O   UNL d   1      78.341  70.337  17.305  0.00  0.00    -0.290 OA
ATOM      4  C   UNL d   1      73.973  71.159  19.579  0.00  0.00     0.010 C 
ATOM      5  C   UNL d   1      74.527  71.886  20.787  0.00  0.00     0.119 A 
ATOM      6  C   UNL d   1      75.154  70.206  19.058  0.00  0.00     0.054 C 
ATOM      7  C   UNL d   1      74.624  70.847  21.850  0.00  0.00     0.188 C 
ATOM      8  C   UNL d   1      72.840  70.304  20.270  0.00  0.00     0.048 C 
ATOM      9  C   UNL d   1      75.213  73.229  20.828  0.00  0.00     0.210 A 
ATOM     10  C   UNL d   1      73.242  70.184  21.758  0.00  0.00     0.151 C 
ATOM     11  C   UNL d   1      75.599  69.281  20.248  0.00  0.00     0.160 C 
ATOM     12  C   UNL d   1      73.352  72.074  18.522  0.00  0.00     0.020 C 
ATOM     13  C   UNL d   1      76.409  71.003  18.587  0.00  0.00     0.206 C 
ATOM     14  C   UNL d   1      76.922  68.596  20.044  0.00  0.00     0.016 C 
ATOM     15  C   UNL d   1      77.587  70.096  18.247  0.00  0.00     0.184 C 
ATOM     16  C   UNL d   1      77.844  68.922  19.128  0.00  0.00    -0.015 C 
ATOM     17  C   UNL d   1      79.124  68.172  18.940  0.00  0.00     0.052 C 
ENDROOT
BRANCH   6  18
ATOM     18  C   UNL d   1      74.661  69.324  17.875  0.00  0.00     0.180 C 
BRANCH  18  19
ATOM     19  O   UNL d   1      74.152  68.133  18.422  0.00  0.00    -0.400 OA
ATOM     20  H   UNL d   1      73.842  67.582  17.683  0.00  0.00     0.209 HD
ENDBRANCH  18  19
ENDBRANCH   6  18
BRANCH  13  21
ATOM     21  O   UNL d   1      76.134  71.780  17.433  0.00  0.00    -0.387 OA
ATOM     22  H   UNL d   1      75.985  71.182  16.681  0.00  0.00     0.210 HD
ENDBRANCH  13  21
BRANCH  10  23
ATOM     23  O   UNL d   1      73.245  68.852  22.227  0.00  0.00    -0.393 OA
ATOM     24  H   UNL d   1      72.358  68.484  22.068  0.00  0.00     0.210 HD
ENDBRANCH  10  23
TORSDOF 4
