REMARK minimizedAffinity -6.1887908
REMARK minimizedRMSD -1
REMARK  4 active torsions:
REMARK  status: ('A' for Active; 'I' for Inactive)
REMARK    1  A    between atoms: O_3  and  C_13 
REMARK    2  A    between atoms: O_4  and  C_16 
REMARK    3  A    between atoms: O_5  and  C_17 
REMARK    4  A    between atoms: C_9  and  C_17 
ROOT
ATOM      1  O   UNL d   1      89.213  34.764  67.994  0.00  0.00    -0.371 OA
ATOM      2  O   UNL d   1      89.545  36.062  64.606  0.00  0.00    -0.370 OA
ATOM      3  O   UNL d   1      92.741  39.742  65.612  0.00  0.00    -0.290 OA
ATOM      4  C   UNL d   1      88.804  37.091  67.161  0.00  0.00     0.010 C 
ATOM      5  C   UNL d   1      89.406  35.719  66.939  0.00  0.00     0.119 A 
ATOM      6  C   UNL d   1      89.549  38.071  66.133  0.00  0.00     0.054 C 
ATOM      7  C   UNL d   1      88.889  35.282  65.612  0.00  0.00     0.188 C 
ATOM      8  C   UNL d   1      87.323  36.820  66.688  0.00  0.00     0.048 C 
ATOM      9  C   UNL d   1      90.570  35.088  67.662  0.00  0.00     0.210 A 
ATOM     10  C   UNL d   1      87.391  35.593  65.749  0.00  0.00     0.151 C 
ATOM     11  C   UNL d   1      89.371  37.490  64.684  0.00  0.00     0.160 C 
ATOM     12  C   UNL d   1      88.799  37.550  68.621  0.00  0.00     0.020 C 
ATOM     13  C   UNL d   1      91.080  38.183  66.409  0.00  0.00     0.206 C 
ATOM     14  C   UNL d   1      90.304  38.072  63.658  0.00  0.00     0.016 C 
ATOM     15  C   UNL d   1      91.813  38.982  65.336  0.00  0.00     0.184 C 
ATOM     16  C   UNL d   1      91.413  38.779  63.916  0.00  0.00    -0.015 C 
ATOM     17  C   UNL d   1      92.277  39.376  62.851  0.00  0.00     0.052 C 
ENDROOT
BRANCH   6  18
ATOM     18  C   UNL d   1      88.934  39.498  66.196  0.00  0.00     0.180 C 
BRANCH  18  19
ATOM     19  O   UNL d   1      87.872  39.539  65.275  0.00  0.00    -0.400 OA
ATOM     20  H   UNL d   1      87.486  40.431  65.316  0.00  0.00     0.209 HD
ENDBRANCH  18  19
ENDBRANCH   6  18
BRANCH  13  21
ATOM     21  O   UNL d   1      91.344  38.814  67.652  0.00  0.00    -0.387 OA
ATOM     22  H   UNL d   1      91.084  39.748  67.591  0.00  0.00     0.210 HD
ENDBRANCH  13  21
BRANCH  10  23
ATOM     23  O   UNL d   1      86.764  35.812  64.503  0.00  0.00    -0.393 OA
ATOM     24  H   UNL d   1      85.843  36.072  64.680  0.00  0.00     0.210 HD
ENDBRANCH  10  23
TORSDOF 4
